                                  MODFLOW-2015     
      U.S. GEOLOGICAL SURVEY MODULAR FINITE-DIFFERENCE GROUND-WATER FLOW MODEL
                            VERSION GWF 3 11/10/2014

 LIST FILE: test4tas.lst
                         UNIT 1004

 OPENING test4tas.ic
 FILE TYPE:IC8   UNIT 1005   STATUS:OLD    
 FORMAT:FORMATTED              ACCESS:SEQUENTIAL          

 OPENING test4tas.npf
 FILE TYPE:NPF8   UNIT 1006   STATUS:OLD    
 FORMAT:FORMATTED              ACCESS:SEQUENTIAL          
#CHD8  test4tas.chd     OLD                                                                                                                                                                                                                                                                                 

 OPENING test4tas.wel
 FILE TYPE:WEL8   UNIT 1007   STATUS:OLD    
 FORMAT:FORMATTED              ACCESS:SEQUENTIAL          

 OPENING test4tas-example.riv
 FILE TYPE:RIV8   UNIT 1008   STATUS:OLD    
 FORMAT:FORMATTED              ACCESS:SEQUENTIAL          

 OPENING test4tas.rch
 FILE TYPE:RCH8   UNIT 1009   STATUS:OLD    
 FORMAT:FORMATTED              ACCESS:SEQUENTIAL          

 OPENING test4tas.oc
 FILE TYPE:OC8   UNIT 1010   STATUS:OLD    
 FORMAT:FORMATTED              ACCESS:SEQUENTIAL          
#OC8   test4tas-brief.oc      OLD                                                                                                                                                                                                                                                                           

 OPENING test4tas.dis
 FILE TYPE:DIS8   UNIT 1011   STATUS:OLD    
 FORMAT:FORMATTED              ACCESS:SEQUENTIAL          

 OPENING test4tas.ghb
 FILE TYPE:GHB8   UNIT 1012   STATUS:OLD    
 FORMAT:FORMATTED              ACCESS:SEQUENTIAL          

 OPENING test4tas.sto
 FILE TYPE:STO8   UNIT 1013   STATUS:OLD    
 FORMAT:FORMATTED              ACCESS:SEQUENTIAL          

 OPENING test4tas.ets
 FILE TYPE:ETS8   UNIT 1014   STATUS:OLD    
 FORMAT:FORMATTED              ACCESS:SEQUENTIAL          

 OPENING test4tas.obs
 FILE TYPE:OBS8   UNIT 1015   STATUS:OLD    
 FORMAT:FORMATTED              ACCESS:SEQUENTIAL          
#                                                                                                                                                                                                                                                                                                           
# Output DATA and DATA(BINARY) files                                                                                                                                                                                                                                                                        
#                                                                                                                                                                                                                                                                                                           

 OPENING test4tas.cbc
 FILE TYPE:DATA(BINARY)   UNIT 1016   STATUS:REPLACE
 FORMAT:UNFORMATTED            ACCESS:STREAM              
#DATA(BINARY) test4tas.hds    REPLACE                                                                                                                                                                                                                                                                       

 OPENING test4tas.hds
 FILE TYPE:DATA   UNIT 1017   STATUS:REPLACE
 FORMAT:FORMATTED              ACCESS:SEQUENTIAL          

 OPENING ibound.out
 FILE TYPE:DATA   UNIT 1018   STATUS:REPLACE
 FORMAT:FORMATTED              ACCESS:SEQUENTIAL          
#                                                                                                                                                                                                                                                                                                           
# Output: single observations                                                                                                                                                                                                                                                                               

 OPENING head_obs.csv
 FILE TYPE:DATA   UNIT 1019   STATUS:REPLACE
 FORMAT:FORMATTED              ACCESS:SEQUENTIAL          

 OPENING riv_obs.csv
 FILE TYPE:DATA   UNIT 1020   STATUS:REPLACE
 FORMAT:FORMATTED              ACCESS:SEQUENTIAL          

 OPENING ghb_obs.csv
 FILE TYPE:DATA   UNIT 1021   STATUS:REPLACE
 FORMAT:FORMATTED              ACCESS:SEQUENTIAL          
#DATA(BINARY) head_obs.bsv  REPLACE                                                                                                                                                                                                                                                                         
#DATA(BINARY) riv_obs.bsv   REPLACE                                                                                                                                                                                                                                                                         
#                                                                                                                                                                                                                                                                                                           
# Output: continuous observations                                                                                                                                                                                                                                                                           

 OPENING ghb_flows.csv
 FILE TYPE:DATA   UNIT 1022   STATUS:REPLACE
 FORMAT:FORMATTED              ACCESS:SEQUENTIAL          

 OPENING head_hydrographs.csv
 FILE TYPE:DATA   UNIT 1023   STATUS:REPLACE
 FORMAT:FORMATTED              ACCESS:SEQUENTIAL          

 OPENING riv_flows.csv
 FILE TYPE:DATA   UNIT 1024   STATUS:REPLACE
 FORMAT:FORMATTED              ACCESS:SEQUENTIAL          

 OPENING intercell_flow_obs1.csv
 FILE TYPE:DATA   UNIT 1025   STATUS:REPLACE
 FORMAT:FORMATTED              ACCESS:SEQUENTIAL          

 OPENING intercell_flow_obs2.csv
 FILE TYPE:DATA   UNIT 1026   STATUS:REPLACE
 FORMAT:FORMATTED              ACCESS:SEQUENTIAL          

 OPENING intercell_flows.csv
 FILE TYPE:DATA   UNIT 1027   STATUS:REPLACE
 FORMAT:FORMATTED              ACCESS:SEQUENTIAL          

 OPENING chd_flows.csv
 FILE TYPE:DATA   UNIT 1028   STATUS:REPLACE
 FORMAT:FORMATTED              ACCESS:SEQUENTIAL          

 OPENING chd_obs.csv
 FILE TYPE:DATA   UNIT 1029   STATUS:REPLACE
 FORMAT:FORMATTED              ACCESS:SEQUENTIAL          
#DATA(BINARY) ghb_flows.bsv            REPLACE                                                                                                                                                                                                                                                              
#DATA(BINARY) head_hydrographs.bsv     REPLACE                                                                                                                                                                                                                                                              
#DATA(BINARY) riv_flows.bsv            REPLACE                                                                                                                                                                                                                                                              
#DATA(BINARY) intercell_flow_obs1.bsv  REPLACE                                                                                                                                                                                                                                                              
#DATA(BINARY) intercell_flow_obs2.bsv  REPLACE                                                                                                                                                                                                                                                              
#DATA(BINARY) intercell_flows.bsv      REPLACE                                                                                                                                                                                                                                                              

 DIS -- STRUCTURED GRID DISCRETIZATION PACKAGE, VERSION 2 : 3/27/2014 - INPUT READ FROM UNIT 1011


 PROCESSING DISCRETIZATION OPTIONS
 END OF DISCRETIZATION OPTIONS
 MODEL LENGTH UNIT IS UNDEFINED
 PROCESSING DISCRETIZATION DIMENSIONS
    NLAY =       2
    NROW =      10
    NCOL =      15
 END OF DISCRETIZATION DIMENSIONS
 PROCESSING DISDATA

                     DELR =   500.000    

                     DELC =   500.000    

 TOP ELEVATION OF LAYER 1 =   150.000    

   MODEL LAYER BOTTOM EL. =   50.0000     FOR LAYER   1

   MODEL LAYER BOTTOM EL. =  -50.0000     FOR LAYER   2
 END PROCESSING DISDATA

 IC -- INITIAL CONDITIONS PACKAGE, VERSION 8, 3/28/2015 INPUT READ FROM UNIT 1005
 #Valley aquifer with 2 sand layers separated by silt.  Stress period 1 is natur
 # conditions.  Stress period 2 adds wells.
 PROCESSING IC OPTIONS
 END OF IC OPTIONS
 PROCESSING ICDATA

             INITIAL HEAD =  100.0000     FOR LAYER   1

             INITIAL HEAD =  100.0000     FOR LAYER   2
 END PROCESSING ICDATA

 NPF -- NODE PROPERTY FLOW PACKAGE, VERSION 1, 3/30/2015 INPUT READ FROM UNIT 1006


 PROCESSING NPF OPTIONS
    CELL-BY-CELL FLOW INFORMATION WILL BE SAVED TO BINARY FILE WHENEVER ICBCFL IS NOT ZERO.
 #  VFC  (turn on vertical flow correction).  Default is off?
    VERTICAL CONDUCTANCE IS CONSTANT.
 #  CVCORRECTION (default is off)
    REWETTING IS ACTIVE.
    IWETIT HAS BEEN SET TO:     1
    WETTING FACTOR HAS BEEN SET TO:    1.000000    
    IHDWET HAS BEEN SET TO:     0
    THE VALUE FOR HDRY HAS BEEN SET TO:     777.770    
 END OF NPF OPTIONS
 #
 PROCESSING NPFDATA

                ICELLTYPE =              1 FOR LAYER   1

                ICELLTYPE =              0 FOR LAYER   2

                 ICELLAVG =         0



                             WETDRY FOR LAYER   1
 READING ON UNIT 1006 WITH FORMAT: (FREE)              

           1          2          3          4          5          6          7          8          9         10         11
          12         13         14         15
 .........................................................................................................................
   1    2.00       2.00       2.00       2.00       2.00       2.00       2.00       2.00      -2.00      -2.00      -2.00    
       -2.00      -2.00      -2.00      -2.00    
   2    2.00       2.00       2.00       2.00       2.00       2.00       2.00       2.00      -2.00      -2.00      -2.00    
       -2.00      -2.00      -2.00      -2.00    
   3    2.00       2.00       2.00      -2.00       2.00       2.00       2.00       2.00      -2.00      -2.00      -2.00    
       -2.00      -2.00      -2.00      -2.00    
   4    2.00       2.00       2.00       2.00       2.00       2.00       2.00       2.00      -2.00      -2.00      -2.00    
       -2.00      -2.00      -2.00      -2.00    
   5    2.00       2.00       2.00       2.00       2.00       2.00       2.00       2.00      -2.00      -2.00      -2.00    
       -2.00      -2.00      -2.00      -2.00    
   6    2.00       2.00       2.00       2.00       2.00       2.00       2.00       2.00      -2.00      -2.00      -2.00    
       -2.00      -2.00      -2.00      -2.00    
   7    2.00       2.00       2.00       2.00       2.00       2.00       2.00       2.00      -2.00      -2.00      -2.00    
       -2.00      -2.00      -2.00      -2.00    
   8    2.00       2.00       2.00      -2.00       2.00       2.00       2.00       2.00      -2.00      -2.00      -2.00    
       -2.00      -2.00      -2.00      -2.00    
   9    2.00       2.00       2.00       2.00       2.00       2.00       2.00       2.00      -2.00      -2.00      -2.00    
       -2.00      -2.00      -2.00      -2.00    
  10    2.00       2.00       2.00       2.00       2.00       2.00       2.00       2.00      -2.00      -2.00      -2.00    
       -2.00      -2.00      -2.00      -2.00    

                   WETDRY =   0.00000     FOR LAYER   2

                       HK =   4.00000     FOR LAYER   1

                       HK =  0.500000     FOR LAYER   2

                       VK =  1.000000E-02
 END PROCESSING NPFDATA

 STO -- STORAGE PACKAGE, VERSION 1, 5/19/2014 INPUT READ FROM UNIT 1013


 PROCESSING STORAGE OPTIONS
    CELL-BY-CELL FLOW INFORMATION WILL BE SAVED TO BINARY FILE WHENEVER ICBCFL IS NOT ZERO.
 #STORAGECOEFFICIENT uncomment if SS is entered as storage coefficient
 END OF STORAGE OPTIONS

 OUTPUT CONTROL IS SPECIFIED ONLY AT TIME STEPS FOR WHICH OUTPUT IS DESIRED
 BINARY CELL-BY-CELL BUDGET INFORMATION WILL BE WRITTEN TO FILE:
 test4tas.cbc
 OPENED ON UNIT NUMBER:   1016
 HEAD             WILL BE SAVED WITH FORMAT: (15f7.2)            
 SAVED HEAD             WILL BE LABELED
 IBOUND           WILL BE SAVED WITH FORMAT: (15i2)              
 SAVED IBOUND           WILL BE LABELED
 HEAD PRINT FORMAT CODE IS   4
 DRAWDOWN PRINT FORMAT CODE IS   0
 IBOUND PRINT FORMAT CODE IS   0
 HEAD WILL BE SAVED ON UNIT 1017
 IBOUND WILL BE SAVED ON UNIT 1018

The Observation Process is active

Processing observation options:

Binary output precision set to: SINGLE
Text output number of digits of precision set to: 10
"Structured" option found. Cell locations for observations will be
read as: Layer Row Column.


 WEL   -- WELLS PACKAGE, VERSION 8, 2/22/2014 INPUT READ FROM UNIT 1007
 #option block.  Note -- no comments allowed on aux line

 PROCESSING WELLS OPTIONS
    AUXILIARY WELLS VARIABLE: VAR1            
    AUXILIARY WELLS VARIABLE: VAR2            
    AUXILIARY WELLS VARIABLE: VAR3            
    WELLS NEAR RIVER PACKAGE NAME: WELLS NEAR RIVER
    LISTS OF WELLS NEAR RIVER CELLS WILL BE PRINTED.
    WELLS NEAR RIVER FLOWS WILL BE PRINTED TO LISTING FILE.
    FLOWS WILL BE SAVED TO BUDGET FILE SPECIFIED IN OUTPUT CONTROL
    WELLS NEAR RIVER BOUNDARIES HAVE NAMES IN LAST COLUMN.
    TIME-SERIES DATA WILL BE READ FROM FILE: well-1_rate.ts
    TIME-SERIES DATA WILL BE READ FROM FILE: well-2_rate.ts
 END OF WELLS NEAR RIVER OPTIONS

 PROCESSING WELLS NEAR RIVER DIMENSIONS
    MAXBOUND =       5
 END OF WELLS NEAR RIVER DIMENSIONS

 RIV   -- RIVER LEAKAGE PACKAGE, VERSION 8, 2/22/2014 INPUT READ FROM UNIT 1008
 #option block.  Note -- no comments allowed on aux line

 PROCESSING RIVER LEAKAGE OPTIONS
    RIVER PACKAGE NAME: RIVER           
    LISTS OF RIVER CELLS WILL BE PRINTED.
    RIVER FLOWS WILL BE PRINTED TO LISTING FILE.
    FLOWS WILL BE SAVED TO BUDGET FILE SPECIFIED IN OUTPUT CONTROL
    RIVER BOUNDARIES HAVE NAMES IN LAST COLUMN.
    TIME-SERIES DATA WILL BE READ FROM FILE: time_series_file_1.ts
    TIME-SERIES DATA WILL BE READ FROM FILE: time_series_file_2.ts
 #Other packages may specify the same TIMESERIESFILE and reuse the same time series.
 #To specify multiple time-series files, enter a TIMESERIESFILE line for each file.
 END OF RIVER OPTIONS

 PROCESSING RIVER DIMENSIONS
    MAXBOUND =      10
 END OF RIVER DIMENSIONS

 GHB   -- HEAD DEP BOUNDS PACKAGE, VERSION 8, 2/22/2014 INPUT READ FROM UNIT 1012
 # Options block

 PROCESSING HEAD DEP BOUNDS OPTIONS
    GHB LAKES PACKAGE NAME: GHB LAKES       
    LISTS OF GHB LAKES CELLS WILL BE PRINTED.
    GHB LAKES FLOWS WILL BE PRINTED TO LISTING FILE.
    GHB LAKES BOUNDARIES HAVE NAMES IN LAST COLUMN.
 END OF GHB LAKES OPTIONS
 # Dimensions block

 PROCESSING GHB LAKES DIMENSIONS
    MAXBOUND =       3
 END OF GHB LAKES DIMENSIONS

 RCH   -- RECHARGE PACKAGE, VERSION 8, 2/22/2014 INPUT READ FROM UNIT 1009

 PROCESSING RECHARGE OPTIONS
    RECHARGE WILL BE APPLIED TO HIGHEST ACTIVE CELL.
    LISTS OF RECHARGE CELLS WILL BE PRINTED.
    RECHARGE FLOWS WILL BE PRINTED TO LISTING FILE.
    FLOWS WILL BE SAVED TO BUDGET FILE SPECIFIED IN OUTPUT CONTROL
    RECHARGE PACKAGE NAME: RECHARGE        
    TIME-ARRAY SERIES DATA WILL BE READ FROM FILE: RchArraySeries.tas

 RchArraySeries           =  2.000000E-03 FOR LAYER   1
    AUXILIARY RECHARGE VARIABLE: VAR1            
 END OF RECHARGE OPTIONS
 # Dimension block is required

 PROCESSING RECHARGE DIMENSIONS
    MAXBOUND =     150
 END OF RECHARGE DIMENSIONS

 ETS   -- ETS PACKAGE, VERSION 8, 2/22/2014 INPUT READ FROM UNIT 1014
 # ETS input file

 PROCESSING ETS OPTIONS
    EVAPOTRANSPIRATION WILL BE APPLIED TO HIGHEST ACTIVE CELL.
    LISTS OF ETS CELLS WILL BE PRINTED.
    ETS FLOWS WILL BE PRINTED TO LISTING FILE.
    FLOWS WILL BE SAVED TO BUDGET FILE SPECIFIED IN OUTPUT CONTROL
    ET SEGS PACKAGE NAME: ET SEGS         
 #  TimeArraySeriesFile EtsArraySeries.tas
 END OF ET SEGS OPTIONS

 PROCESSING ET SEGS DIMENSIONS
    MAXBOUND =     150
 END OF ET SEGS DIMENSIONS
 #

 REUSING STORAGE VALUES FROM LAST STRESS PERIOD

 REUSING WELS FROM LAST STRESS PERIOD
 #    layer       row       col    stage           cond       rbot  BoundName

 RIV NO.  LAYER   ROW    COL       STAGE         CONDUCTANCE  BOTTOM EL.      BOUNDARY NAME         
 ---------------------------------------------------------------------------------------------------
      1      1      1     15       101.0           1001.           101.0                      
      2      1      2     15       101.0           1002.           102.0      RIV2            
      3      1      3     15       111.2           1003.           103.0      RIV3            
      4      1      4     15       111.2           1004.           104.0                      
      5      1      5     15       115.3           1005.           105.0                      
      6      1      6     15       115.3           1006.           106.0                      
      7      1      7     15       104.0           1007.           107.0      RIVX            
      8      1      8     15       104.0           1008.           108.0      RIVX            
      9      1      9     15       113.0           1009.           109.0      RIVX            
     10      1     10     15       113.0           1010.           110.0                      
 # Stress-period block(s)

 GHB NO.  LAYER   ROW    COL       STAGE         CONDUCTANCE  BOUNDARY NAME         
 -----------------------------------------------------------------------------------
      1      1      3      1      100.00           1500.                      
      2      1      7      1       110.0           1400.      GHB2_UPPER      
      3      1      7      1       85.00           500.0      GHB2_LOWER      
 # Time-array series applies stress periods 1-7

      LAYER OR NODE INDEX =              1

 VAR1                     =  100.0000    

      LAYER OR NODE INDEX =              1

               ET SURFACE =   140.000    

  EVAPOTRANSPIRATION RATE =  4.000000E-04

         EXTINCTION DEPTH =  10.00000    

 EXTINCT. DEP. PROPORTION =  0.200000    

       ET RATE PROPORTION =  0.300000    

 EXTINCT. DEP. PROPORTION =  0.500000    

       ET RATE PROPORTION =  1.000000E-01
RIV   no.    1 value from time series:   101.00     for time:  0.000     to 1.0000    
RIV   no.    2 value from time series:   101.00     for time:  0.000     to 1.0000    
RIV   no.    3 value from time series:   111.25     for time:  0.000     to 1.0000    
RIV   no.    4 value from time series:   111.25     for time:  0.000     to 1.0000    
RIV   no.    5 value from time series:   115.35     for time:  0.000     to 1.0000    
RIV   no.    6 value from time series:   115.35     for time:  0.000     to 1.0000    
RIV   no.    7 value from time series:   104.05     for time:  0.000     to 1.0000    
RIV   no.    8 value from time series:   104.05     for time:  0.000     to 1.0000    
RIV   no.    9 value from time series:   113.00     for time:  0.000     to 1.0000    
RIV   no.   10 value from time series:   113.00     for time:  0.000     to 1.0000    

 RchArraySeries           =  2.500000E-03 FOR LAYER   1
RIV   no.    1 value from time series:   101.00     for time:  0.000     to 1.0000    
RIV   no.    2 value from time series:   101.00     for time:  0.000     to 1.0000    
RIV   no.    3 value from time series:   111.25     for time:  0.000     to 1.0000    
RIV   no.    4 value from time series:   111.25     for time:  0.000     to 1.0000    
RIV   no.    5 value from time series:   115.35     for time:  0.000     to 1.0000    
RIV   no.    6 value from time series:   115.35     for time:  0.000     to 1.0000    
RIV   no.    7 value from time series:   104.05     for time:  0.000     to 1.0000    
RIV   no.    8 value from time series:   104.05     for time:  0.000     to 1.0000    
RIV   no.    9 value from time series:   113.00     for time:  0.000     to 1.0000    
RIV   no.   10 value from time series:   113.00     for time:  0.000     to 1.0000    

 OUTPUT CONTROL FOR STRESS PERIOD    1   TIME STEP    1
    PRINT BUDGET
    PRINT HEAD
    PRINT HEAD FOR ALL LAYERS
    SAVE BUDGET
    SAVE HEAD
    SAVE HEAD FOR ALL LAYERS
 UBDSV1 SAVING          STORAGE ON UNIT   1016 AT TIME STEP      1, STRESS PERIOD      1
 UBDSV1 SAVING FLOW RIGHT FACE  ON UNIT   1016 AT TIME STEP      1, STRESS PERIOD      1
 UBDSV1 SAVING FLOW FRONT FACE  ON UNIT   1016 AT TIME STEP      1, STRESS PERIOD      1
 UBDSV1 SAVING FLOW LOWER FACE  ON UNIT   1016 AT TIME STEP      1, STRESS PERIOD      1
 UBDSV4 SAVING WELLS NEAR RIVER ON UNIT   1016 AT TIME STEP      1, STRESS PERIOD      1
 UBDSV4 SAVING RIVER            ON UNIT   1016 AT TIME STEP      1, STRESS PERIOD      1

 RIVER              PERIOD  1   STEP  1
 BOUNDARY      1   LAYER   1   ROW     1   COL    15   RATE    -4657.61    
 BOUNDARY      2   LAYER   1   ROW     2   COL    15   RATE    -5758.62      RIV2
 BOUNDARY      3   LAYER   1   ROW     3   COL    15   RATE    -2138.98      RIV3
 BOUNDARY      4   LAYER   1   ROW     4   COL    15   RATE    -3629.01    
 BOUNDARY      5   LAYER   1   ROW     5   COL    15   RATE    -2063.27    
 BOUNDARY      6   LAYER   1   ROW     6   COL    15   RATE    -1438.81    
 BOUNDARY      7   LAYER   1   ROW     7   COL    15   RATE    -5994.58      RIVX
 BOUNDARY      8   LAYER   1   ROW     8   COL    15   RATE    -5765.43      RIVX
 BOUNDARY      9   LAYER   1   ROW     9   COL    15   RATE    -2194.36      RIVX
 BOUNDARY     10   LAYER   1   ROW    10   COL    15   RATE    -3046.62    

 GHB LAKES          PERIOD  1   STEP  1
 BOUNDARY      1   LAYER   1   ROW     3   COL     1   RATE    -14402.9    
 BOUNDARY      2   LAYER   1   ROW     7   COL     1   RATE    -1829.65      GHB2_UPPER
 BOUNDARY      3   LAYER   1   ROW     7   COL     1   RATE    -13153.4      GHB2_LOWER
 UBDSV4 SAVING RECHARGE         ON UNIT   1016 AT TIME STEP      1, STRESS PERIOD      1

 RECHARGE           PERIOD  1   STEP  1
 BOUNDARY      1   LAYER   1   ROW     1   COL     1   RATE     501.042    
 BOUNDARY      2   LAYER   1   ROW     1   COL     2   RATE     501.042    
 BOUNDARY      3   LAYER   1   ROW     1   COL     3   RATE     501.042    
 BOUNDARY      4   LAYER   1   ROW     1   COL     4   RATE     501.042    
 BOUNDARY      5   LAYER   1   ROW     1   COL     5   RATE     501.042    
 BOUNDARY      6   LAYER   1   ROW     1   COL     6   RATE     501.042    
 BOUNDARY      7   LAYER   1   ROW     1   COL     7   RATE     501.042    
 BOUNDARY      8   LAYER   1   ROW     1   COL     8   RATE     501.042    
 BOUNDARY      9   LAYER   1   ROW     1   COL     9   RATE     501.042    
 BOUNDARY     10   LAYER   1   ROW     1   COL    10   RATE     501.042    
 BOUNDARY     11   LAYER   1   ROW     1   COL    11   RATE     501.042    
 BOUNDARY     12   LAYER   1   ROW     1   COL    12   RATE     501.042    
 BOUNDARY     13   LAYER   1   ROW     1   COL    13   RATE     501.042    
 BOUNDARY     14   LAYER   1   ROW     1   COL    14   RATE     501.042    
 BOUNDARY     15   LAYER   1   ROW     1   COL    15   RATE     501.042    
 BOUNDARY     16   LAYER   1   ROW     2   COL     1   RATE     501.042    
 BOUNDARY     17   LAYER   1   ROW     2   COL     2   RATE     501.042    
 BOUNDARY     18   LAYER   1   ROW     2   COL     3   RATE     501.042    
 BOUNDARY     19   LAYER   1   ROW     2   COL     4   RATE     501.042    
 BOUNDARY     20   LAYER   1   ROW     2   COL     5   RATE     501.042    
 BOUNDARY     21   LAYER   1   ROW     2   COL     6   RATE     501.042    
 BOUNDARY     22   LAYER   1   ROW     2   COL     7   RATE     501.042    
 BOUNDARY     23   LAYER   1   ROW     2   COL     8   RATE     501.042    
 BOUNDARY     24   LAYER   1   ROW     2   COL     9   RATE     501.042    
 BOUNDARY     25   LAYER   1   ROW     2   COL    10   RATE     501.042    
 BOUNDARY     26   LAYER   1   ROW     2   COL    11   RATE     501.042    
 BOUNDARY     27   LAYER   1   ROW     2   COL    12   RATE     501.042    
 BOUNDARY     28   LAYER   1   ROW     2   COL    13   RATE     501.042    
 BOUNDARY     29   LAYER   1   ROW     2   COL    14   RATE     501.042    
 BOUNDARY     30   LAYER   1   ROW     2   COL    15   RATE     501.042    
 BOUNDARY     31   LAYER   1   ROW     3   COL     1   RATE     501.042    
 BOUNDARY     32   LAYER   1   ROW     3   COL     2   RATE     501.042    
 BOUNDARY     33   LAYER   1   ROW     3   COL     3   RATE     501.042    
 BOUNDARY     34   LAYER   1   ROW     3   COL     4   RATE     501.042    
 BOUNDARY     35   LAYER   1   ROW     3   COL     5   RATE     501.042    
 BOUNDARY     36   LAYER   1   ROW     3   COL     6   RATE     501.042    
 BOUNDARY     37   LAYER   1   ROW     3   COL     7   RATE     501.042    
 BOUNDARY     38   LAYER   1   ROW     3   COL     8   RATE     501.042    
 BOUNDARY     39   LAYER   1   ROW     3   COL     9   RATE     501.042    
 BOUNDARY     40   LAYER   1   ROW     3   COL    10   RATE     501.042    
 BOUNDARY     41   LAYER   1   ROW     3   COL    11   RATE     501.042    
 BOUNDARY     42   LAYER   1   ROW     3   COL    12   RATE     501.042    
 BOUNDARY     43   LAYER   1   ROW     3   COL    13   RATE     501.042    
 BOUNDARY     44   LAYER   1   ROW     3   COL    14   RATE     501.042    
 BOUNDARY     45   LAYER   1   ROW     3   COL    15   RATE     501.042    
 BOUNDARY     46   LAYER   1   ROW     4   COL     1   RATE     501.042    
 BOUNDARY     47   LAYER   1   ROW     4   COL     2   RATE     501.042    
 BOUNDARY     48   LAYER   1   ROW     4   COL     3   RATE     501.042    
 BOUNDARY     49   LAYER   1   ROW     4   COL     4   RATE     501.042    
 BOUNDARY     50   LAYER   1   ROW     4   COL     5   RATE     501.042    
 BOUNDARY     51   LAYER   1   ROW     4   COL     6   RATE     501.042    
 BOUNDARY     52   LAYER   1   ROW     4   COL     7   RATE     501.042    
 BOUNDARY     53   LAYER   1   ROW     4   COL     8   RATE     501.042    
 BOUNDARY     54   LAYER   1   ROW     4   COL     9   RATE     501.042    
 BOUNDARY     55   LAYER   1   ROW     4   COL    10   RATE     501.042    
 BOUNDARY     56   LAYER   1   ROW     4   COL    11   RATE     501.042    
 BOUNDARY     57   LAYER   1   ROW     4   COL    12   RATE     501.042    
 BOUNDARY     58   LAYER   1   ROW     4   COL    13   RATE     501.042    
 BOUNDARY     59   LAYER   1   ROW     4   COL    14   RATE     501.042    
 BOUNDARY     60   LAYER   1   ROW     4   COL    15   RATE     501.042    
 BOUNDARY     61   LAYER   1   ROW     5   COL     1   RATE     501.042    
 BOUNDARY     62   LAYER   1   ROW     5   COL     2   RATE     501.042    
 BOUNDARY     63   LAYER   1   ROW     5   COL     3   RATE     501.042    
 BOUNDARY     64   LAYER   1   ROW     5   COL     4   RATE     501.042    
 BOUNDARY     65   LAYER   1   ROW     5   COL     5   RATE     501.042    
 BOUNDARY     66   LAYER   1   ROW     5   COL     6   RATE     501.042    
 BOUNDARY     67   LAYER   1   ROW     5   COL     7   RATE     501.042    
 BOUNDARY     68   LAYER   1   ROW     5   COL     8   RATE     501.042    
 BOUNDARY     69   LAYER   1   ROW     5   COL     9   RATE     501.042    
 BOUNDARY     70   LAYER   1   ROW     5   COL    10   RATE     501.042    
 BOUNDARY     71   LAYER   1   ROW     5   COL    11   RATE     501.042    
 BOUNDARY     72   LAYER   1   ROW     5   COL    12   RATE     501.042    
 BOUNDARY     73   LAYER   1   ROW     5   COL    13   RATE     501.042    
 BOUNDARY     74   LAYER   1   ROW     5   COL    14   RATE     501.042    
 BOUNDARY     75   LAYER   1   ROW     5   COL    15   RATE     501.042    
 BOUNDARY     76   LAYER   1   ROW     6   COL     1   RATE     501.042    
 BOUNDARY     77   LAYER   1   ROW     6   COL     2   RATE     501.042    
 BOUNDARY     78   LAYER   1   ROW     6   COL     3   RATE     501.042    
 BOUNDARY     79   LAYER   1   ROW     6   COL     4   RATE     501.042    
 BOUNDARY     80   LAYER   1   ROW     6   COL     5   RATE     501.042    
 BOUNDARY     81   LAYER   1   ROW     6   COL     6   RATE     501.042    
 BOUNDARY     82   LAYER   1   ROW     6   COL     7   RATE     501.042    
 BOUNDARY     83   LAYER   1   ROW     6   COL     8   RATE     501.042    
 BOUNDARY     84   LAYER   1   ROW     6   COL     9   RATE     501.042    
 BOUNDARY     85   LAYER   1   ROW     6   COL    10   RATE     501.042    
 BOUNDARY     86   LAYER   1   ROW     6   COL    11   RATE     501.042    
 BOUNDARY     87   LAYER   1   ROW     6   COL    12   RATE     501.042    
 BOUNDARY     88   LAYER   1   ROW     6   COL    13   RATE     501.042    
 BOUNDARY     89   LAYER   1   ROW     6   COL    14   RATE     501.042    
 BOUNDARY     90   LAYER   1   ROW     6   COL    15   RATE     501.042    
 BOUNDARY     91   LAYER   1   ROW     7   COL     1   RATE     501.042    
 BOUNDARY     92   LAYER   1   ROW     7   COL     2   RATE     501.042    
 BOUNDARY     93   LAYER   1   ROW     7   COL     3   RATE     501.042    
 BOUNDARY     94   LAYER   1   ROW     7   COL     4   RATE     501.042    
 BOUNDARY     95   LAYER   1   ROW     7   COL     5   RATE     501.042    
 BOUNDARY     96   LAYER   1   ROW     7   COL     6   RATE     501.042    
 BOUNDARY     97   LAYER   1   ROW     7   COL     7   RATE     501.042    
 BOUNDARY     98   LAYER   1   ROW     7   COL     8   RATE     501.042    
 BOUNDARY     99   LAYER   1   ROW     7   COL     9   RATE     501.042    
 BOUNDARY    100   LAYER   1   ROW     7   COL    10   RATE     501.042    
 BOUNDARY    101   LAYER   1   ROW     7   COL    11   RATE     501.042    
 BOUNDARY    102   LAYER   1   ROW     7   COL    12   RATE     501.042    
 BOUNDARY    103   LAYER   1   ROW     7   COL    13   RATE     501.042    
 BOUNDARY    104   LAYER   1   ROW     7   COL    14   RATE     501.042    
 BOUNDARY    105   LAYER   1   ROW     7   COL    15   RATE     501.042    
 BOUNDARY    106   LAYER   1   ROW     8   COL     1   RATE     501.042    
 BOUNDARY    107   LAYER   1   ROW     8   COL     2   RATE     501.042    
 BOUNDARY    108   LAYER   1   ROW     8   COL     3   RATE     501.042    
 BOUNDARY    109   LAYER   1   ROW     8   COL     4   RATE     501.042    
 BOUNDARY    110   LAYER   1   ROW     8   COL     5   RATE     501.042    
 BOUNDARY    111   LAYER   1   ROW     8   COL     6   RATE     501.042    
 BOUNDARY    112   LAYER   1   ROW     8   COL     7   RATE     501.042    
 BOUNDARY    113   LAYER   1   ROW     8   COL     8   RATE     501.042    
 BOUNDARY    114   LAYER   1   ROW     8   COL     9   RATE     501.042    
 BOUNDARY    115   LAYER   1   ROW     8   COL    10   RATE     501.042    
 BOUNDARY    116   LAYER   1   ROW     8   COL    11   RATE     501.042    
 BOUNDARY    117   LAYER   1   ROW     8   COL    12   RATE     501.042    
 BOUNDARY    118   LAYER   1   ROW     8   COL    13   RATE     501.042    
 BOUNDARY    119   LAYER   1   ROW     8   COL    14   RATE     501.042    
 BOUNDARY    120   LAYER   1   ROW     8   COL    15   RATE     501.042    
 BOUNDARY    121   LAYER   1   ROW     9   COL     1   RATE     501.042    
 BOUNDARY    122   LAYER   1   ROW     9   COL     2   RATE     501.042    
 BOUNDARY    123   LAYER   1   ROW     9   COL     3   RATE     501.042    
 BOUNDARY    124   LAYER   1   ROW     9   COL     4   RATE     501.042    
 BOUNDARY    125   LAYER   1   ROW     9   COL     5   RATE     501.042    
 BOUNDARY    126   LAYER   1   ROW     9   COL     6   RATE     501.042    
 BOUNDARY    127   LAYER   1   ROW     9   COL     7   RATE     501.042    
 BOUNDARY    128   LAYER   1   ROW     9   COL     8   RATE     501.042    
 BOUNDARY    129   LAYER   1   ROW     9   COL     9   RATE     501.042    
 BOUNDARY    130   LAYER   1   ROW     9   COL    10   RATE     501.042    
 BOUNDARY    131   LAYER   1   ROW     9   COL    11   RATE     501.042    
 BOUNDARY    132   LAYER   1   ROW     9   COL    12   RATE     501.042    
 BOUNDARY    133   LAYER   1   ROW     9   COL    13   RATE     501.042    
 BOUNDARY    134   LAYER   1   ROW     9   COL    14   RATE     501.042    
 BOUNDARY    135   LAYER   1   ROW     9   COL    15   RATE     501.042    
 BOUNDARY    136   LAYER   1   ROW    10   COL     1   RATE     501.042    
 BOUNDARY    137   LAYER   1   ROW    10   COL     2   RATE     501.042    
 BOUNDARY    138   LAYER   1   ROW    10   COL     3   RATE     501.042    
 BOUNDARY    139   LAYER   1   ROW    10   COL     4   RATE     501.042    
 BOUNDARY    140   LAYER   1   ROW    10   COL     5   RATE     501.042    
 BOUNDARY    141   LAYER   1   ROW    10   COL     6   RATE     501.042    
 BOUNDARY    142   LAYER   1   ROW    10   COL     7   RATE     501.042    
 BOUNDARY    143   LAYER   1   ROW    10   COL     8   RATE     501.042    
 BOUNDARY    144   LAYER   1   ROW    10   COL     9   RATE     501.042    
 BOUNDARY    145   LAYER   1   ROW    10   COL    10   RATE     501.042    
 BOUNDARY    146   LAYER   1   ROW    10   COL    11   RATE     501.042    
 BOUNDARY    147   LAYER   1   ROW    10   COL    12   RATE     501.042    
 BOUNDARY    148   LAYER   1   ROW    10   COL    13   RATE     501.042    
 BOUNDARY    149   LAYER   1   ROW    10   COL    14   RATE     501.042    
 BOUNDARY    150   LAYER   1   ROW    10   COL    15   RATE     501.042    
 UBDSV4 SAVING ET SEGS          ON UNIT   1016 AT TIME STEP      1, STRESS PERIOD      1

 ET SEGS            PERIOD  1   STEP  1
 BOUNDARY      1   LAYER   1   ROW     1   COL     1   RATE    -2.06479    
 BOUNDARY      2   LAYER   1   ROW     1   COL     2   RATE    -8.91741    
 BOUNDARY      3   LAYER   1   ROW     1   COL     3   RATE    -47.6417    
 BOUNDARY      4   LAYER   1   ROW     1   COL     4   RATE   -100.0000    
 BOUNDARY      5   LAYER   1   ROW     1   COL     5   RATE   -100.0000    
 BOUNDARY      6   LAYER   1   ROW     1   COL     6   RATE   -100.0000    
 BOUNDARY      7   LAYER   1   ROW     1   COL     7   RATE   -100.0000    
 BOUNDARY      8   LAYER   1   ROW     1   COL     8   RATE   -100.0000    
 BOUNDARY      9   LAYER   1   ROW     1   COL     9   RATE   -100.0000    
 BOUNDARY     10   LAYER   1   ROW     1   COL    10   RATE   -100.0000    
 BOUNDARY     11   LAYER   1   ROW     1   COL    11   RATE   -100.0000    
 BOUNDARY     12   LAYER   1   ROW     1   COL    12   RATE    -16.4954    
 BOUNDARY     13   LAYER   1   ROW     1   COL    13   RATE     0.00000    
 BOUNDARY     14   LAYER   1   ROW     1   COL    14   RATE     0.00000    
 BOUNDARY     15   LAYER   1   ROW     1   COL    15   RATE     0.00000    
 BOUNDARY     16   LAYER   1   ROW     2   COL     1   RATE     0.00000    
 BOUNDARY     17   LAYER   1   ROW     2   COL     2   RATE    -4.40226    
 BOUNDARY     18   LAYER   1   ROW     2   COL     3   RATE    -27.9891    
 BOUNDARY     19   LAYER   1   ROW     2   COL     4   RATE   -100.0000    
 BOUNDARY     20   LAYER   1   ROW     2   COL     5   RATE   -100.0000    
 BOUNDARY     21   LAYER   1   ROW     2   COL     6   RATE   -100.0000    
 BOUNDARY     22   LAYER   1   ROW     2   COL     7   RATE   -100.0000    
 BOUNDARY     23   LAYER   1   ROW     2   COL     8   RATE   -100.0000    
 BOUNDARY     24   LAYER   1   ROW     2   COL     9   RATE   -100.0000    
 BOUNDARY     25   LAYER   1   ROW     2   COL    10   RATE   -100.0000    
 BOUNDARY     26   LAYER   1   ROW     2   COL    11   RATE   -100.0000    
 BOUNDARY     27   LAYER   1   ROW     2   COL    12   RATE    -18.2351    
 BOUNDARY     28   LAYER   1   ROW     2   COL    13   RATE     0.00000    
 BOUNDARY     29   LAYER   1   ROW     2   COL    14   RATE     0.00000    
 BOUNDARY     30   LAYER   1   ROW     2   COL    15   RATE     0.00000    
 BOUNDARY     31   LAYER   1   ROW     3   COL     1   RATE     0.00000    
 BOUNDARY     32   LAYER   1   ROW     3   COL     2   RATE     0.00000    
 BOUNDARY     33   LAYER   1   ROW     3   COL     3   RATE    -22.0003    
 BOUNDARY     34   LAYER   1   ROW     3   COL     4   RATE   -100.0000    
 BOUNDARY     35   LAYER   1   ROW     3   COL     5   RATE   -100.0000    
 BOUNDARY     36   LAYER   1   ROW     3   COL     6   RATE   -100.0000    
 BOUNDARY     37   LAYER   1   ROW     3   COL     7   RATE   -100.0000    
 BOUNDARY     38   LAYER   1   ROW     3   COL     8   RATE   -100.0000    
 BOUNDARY     39   LAYER   1   ROW     3   COL     9   RATE   -100.0000    
 BOUNDARY     40   LAYER   1   ROW     3   COL    10   RATE   -100.0000    
 BOUNDARY     41   LAYER   1   ROW     3   COL    11   RATE   -100.0000    
 BOUNDARY     42   LAYER   1   ROW     3   COL    12   RATE    -21.1694    
 BOUNDARY     43   LAYER   1   ROW     3   COL    13   RATE    -1.78391    
 BOUNDARY     44   LAYER   1   ROW     3   COL    14   RATE     0.00000    
 BOUNDARY     45   LAYER   1   ROW     3   COL    15   RATE     0.00000    
 BOUNDARY     46   LAYER   1   ROW     4   COL     1   RATE     0.00000    
 BOUNDARY     47   LAYER   1   ROW     4   COL     2   RATE    -2.88834    
 BOUNDARY     48   LAYER   1   ROW     4   COL     3   RATE    -25.8653    
 BOUNDARY     49   LAYER   1   ROW     4   COL     4   RATE   -100.0000    
 BOUNDARY     50   LAYER   1   ROW     4   COL     5   RATE   -100.0000    
 BOUNDARY     51   LAYER   1   ROW     4   COL     6   RATE   -100.0000    
 BOUNDARY     52   LAYER   1   ROW     4   COL     7   RATE   -100.0000    
 BOUNDARY     53   LAYER   1   ROW     4   COL     8   RATE   -100.0000    
 BOUNDARY     54   LAYER   1   ROW     4   COL     9   RATE   -100.0000    
 BOUNDARY     55   LAYER   1   ROW     4   COL    10   RATE   -100.0000    
 BOUNDARY     56   LAYER   1   ROW     4   COL    11   RATE   -100.0000    
 BOUNDARY     57   LAYER   1   ROW     4   COL    12   RATE    -23.9706    
 BOUNDARY     58   LAYER   1   ROW     4   COL    13   RATE    -3.25024    
 BOUNDARY     59   LAYER   1   ROW     4   COL    14   RATE     0.00000    
 BOUNDARY     60   LAYER   1   ROW     4   COL    15   RATE     0.00000    
 BOUNDARY     61   LAYER   1   ROW     5   COL     1   RATE     0.00000    
 BOUNDARY     62   LAYER   1   ROW     5   COL     2   RATE    -5.86160    
 BOUNDARY     63   LAYER   1   ROW     5   COL     3   RATE    -29.8528    
 BOUNDARY     64   LAYER   1   ROW     5   COL     4   RATE   -100.0000    
 BOUNDARY     65   LAYER   1   ROW     5   COL     5   RATE   -100.0000    
 BOUNDARY     66   LAYER   1   ROW     5   COL     6   RATE   -100.0000    
 BOUNDARY     67   LAYER   1   ROW     5   COL     7   RATE   -100.0000    
 BOUNDARY     68   LAYER   1   ROW     5   COL     8   RATE   -100.0000    
 BOUNDARY     69   LAYER   1   ROW     5   COL     9   RATE   -100.0000    
 BOUNDARY     70   LAYER   1   ROW     5   COL    10   RATE   -100.0000    
 BOUNDARY     71   LAYER   1   ROW     5   COL    11   RATE   -100.0000    
 BOUNDARY     72   LAYER   1   ROW     5   COL    12   RATE    -25.9130    
 BOUNDARY     73   LAYER   1   ROW     5   COL    13   RATE    -4.17066    
 BOUNDARY     74   LAYER   1   ROW     5   COL    14   RATE     0.00000    
 BOUNDARY     75   LAYER   1   ROW     5   COL    15   RATE     0.00000    
 BOUNDARY     76   LAYER   1   ROW     6   COL     1   RATE     0.00000    
 BOUNDARY     77   LAYER   1   ROW     6   COL     2   RATE    -4.43364    
 BOUNDARY     78   LAYER   1   ROW     6   COL     3   RATE    -33.0982    
 BOUNDARY     79   LAYER   1   ROW     6   COL     4   RATE   -100.0000    
 BOUNDARY     80   LAYER   1   ROW     6   COL     5   RATE   -100.0000    
 BOUNDARY     81   LAYER   1   ROW     6   COL     6   RATE   -100.0000    
 BOUNDARY     82   LAYER   1   ROW     6   COL     7   RATE   -100.0000    
 BOUNDARY     83   LAYER   1   ROW     6   COL     8   RATE   -100.0000    
 BOUNDARY     84   LAYER   1   ROW     6   COL     9   RATE   -100.0000    
 BOUNDARY     85   LAYER   1   ROW     6   COL    10   RATE   -100.0000    
 BOUNDARY     86   LAYER   1   ROW     6   COL    11   RATE   -100.0000    
 BOUNDARY     87   LAYER   1   ROW     6   COL    12   RATE    -26.5623    
 BOUNDARY     88   LAYER   1   ROW     6   COL    13   RATE    -4.13053    
 BOUNDARY     89   LAYER   1   ROW     6   COL    14   RATE     0.00000    
 BOUNDARY     90   LAYER   1   ROW     6   COL    15   RATE     0.00000    
 BOUNDARY     91   LAYER   1   ROW     7   COL     1   RATE     0.00000    
 BOUNDARY     92   LAYER   1   ROW     7   COL     2   RATE   -0.942161    
 BOUNDARY     93   LAYER   1   ROW     7   COL     3   RATE    -39.9852    
 BOUNDARY     94   LAYER   1   ROW     7   COL     4   RATE   -100.0000    
 BOUNDARY     95   LAYER   1   ROW     7   COL     5   RATE   -100.0000    
 BOUNDARY     96   LAYER   1   ROW     7   COL     6   RATE   -100.0000    
 BOUNDARY     97   LAYER   1   ROW     7   COL     7   RATE   -100.0000    
 BOUNDARY     98   LAYER   1   ROW     7   COL     8   RATE   -100.0000    
 BOUNDARY     99   LAYER   1   ROW     7   COL     9   RATE   -100.0000    
 BOUNDARY    100   LAYER   1   ROW     7   COL    10   RATE   -100.0000    
 BOUNDARY    101   LAYER   1   ROW     7   COL    11   RATE   -100.0000    
 BOUNDARY    102   LAYER   1   ROW     7   COL    12   RATE    -26.3967    
 BOUNDARY    103   LAYER   1   ROW     7   COL    13   RATE    -3.39156    
 BOUNDARY    104   LAYER   1   ROW     7   COL    14   RATE     0.00000    
 BOUNDARY    105   LAYER   1   ROW     7   COL    15   RATE     0.00000    
 BOUNDARY    106   LAYER   1   ROW     8   COL     1   RATE     0.00000    
 BOUNDARY    107   LAYER   1   ROW     8   COL     2   RATE    -10.9914    
 BOUNDARY    108   LAYER   1   ROW     8   COL     3   RATE   -100.0000    
 BOUNDARY    109   LAYER   1   ROW     8   COL     4   RATE   -100.0000    
 BOUNDARY    110   LAYER   1   ROW     8   COL     5   RATE   -100.0000    
 BOUNDARY    111   LAYER   1   ROW     8   COL     6   RATE   -100.0000    
 BOUNDARY    112   LAYER   1   ROW     8   COL     7   RATE   -100.0000    
 BOUNDARY    113   LAYER   1   ROW     8   COL     8   RATE   -100.0000    
 BOUNDARY    114   LAYER   1   ROW     8   COL     9   RATE   -100.0000    
 BOUNDARY    115   LAYER   1   ROW     8   COL    10   RATE   -100.0000    
 BOUNDARY    116   LAYER   1   ROW     8   COL    11   RATE   -100.0000    
 BOUNDARY    117   LAYER   1   ROW     8   COL    12   RATE    -26.7818    
 BOUNDARY    118   LAYER   1   ROW     8   COL    13   RATE    -3.39032    
 BOUNDARY    119   LAYER   1   ROW     8   COL    14   RATE     0.00000    
 BOUNDARY    120   LAYER   1   ROW     8   COL    15   RATE     0.00000    
 BOUNDARY    121   LAYER   1   ROW     9   COL     1   RATE    -18.5696    
 BOUNDARY    122   LAYER   1   ROW     9   COL     2   RATE    -59.0698    
 BOUNDARY    123   LAYER   1   ROW     9   COL     3   RATE   -100.0000    
 BOUNDARY    124   LAYER   1   ROW     9   COL     4   RATE   -100.0000    
 BOUNDARY    125   LAYER   1   ROW     9   COL     5   RATE   -100.0000    
 BOUNDARY    126   LAYER   1   ROW     9   COL     6   RATE   -100.0000    
 BOUNDARY    127   LAYER   1   ROW     9   COL     7   RATE   -100.0000    
 BOUNDARY    128   LAYER   1   ROW     9   COL     8   RATE   -100.0000    
 BOUNDARY    129   LAYER   1   ROW     9   COL     9   RATE   -100.0000    
 BOUNDARY    130   LAYER   1   ROW     9   COL    10   RATE   -100.0000    
 BOUNDARY    131   LAYER   1   ROW     9   COL    11   RATE   -100.0000    
 BOUNDARY    132   LAYER   1   ROW     9   COL    12   RATE    -27.8755    
 BOUNDARY    133   LAYER   1   ROW     9   COL    13   RATE    -4.20119    
 BOUNDARY    134   LAYER   1   ROW     9   COL    14   RATE     0.00000    
 BOUNDARY    135   LAYER   1   ROW     9   COL    15   RATE     0.00000    
 BOUNDARY    136   LAYER   1   ROW    10   COL     1   RATE    -67.2832    
 BOUNDARY    137   LAYER   1   ROW    10   COL     2   RATE   -100.0000    
 BOUNDARY    138   LAYER   1   ROW    10   COL     3   RATE   -100.0000    
 BOUNDARY    139   LAYER   1   ROW    10   COL     4   RATE   -100.0000    
 BOUNDARY    140   LAYER   1   ROW    10   COL     5   RATE   -100.0000    
 BOUNDARY    141   LAYER   1   ROW    10   COL     6   RATE   -100.0000    
 BOUNDARY    142   LAYER   1   ROW    10   COL     7   RATE   -100.0000    
 BOUNDARY    143   LAYER   1   ROW    10   COL     8   RATE   -100.0000    
 BOUNDARY    144   LAYER   1   ROW    10   COL     9   RATE   -100.0000    
 BOUNDARY    145   LAYER   1   ROW    10   COL    10   RATE   -100.0000    
 BOUNDARY    146   LAYER   1   ROW    10   COL    11   RATE   -100.0000    
 BOUNDARY    147   LAYER   1   ROW    10   COL    12   RATE    -28.6692    
 BOUNDARY    148   LAYER   1   ROW    10   COL    13   RATE    -4.72590    
 BOUNDARY    149   LAYER   1   ROW    10   COL    14   RATE     0.00000    
 BOUNDARY    150   LAYER   1   ROW    10   COL    15   RATE     0.00000    
1
  HEAD             IN LAYER   1 AT END OF TIME STEP   1 IN STRESS PERIOD    1
  ---------------------------------------------------------------------------

           1       2       3       4       5       6       7       8       9      10      11      12      13      14      15
 ...........................................................................................................................
   1   131.03  134.46  138.50  141.99  144.64  146.38  147.17  147.02  145.90  143.77  140.52  135.97  129.51  120.18  105.65
   2   125.74  132.20  137.70  141.71  144.57  146.38  147.20  147.06  145.96  143.86  140.67  136.24  130.00  121.07  106.75
   3   109.60  128.77  136.80  141.47  144.53  146.41  147.27  147.15  146.07  144.01  140.91  136.68  130.89  123.20  113.38
   4   124.48  131.44  137.38  141.66  144.66  146.53  147.38  147.27  146.21  144.20  141.18  137.10  131.63  124.46  114.86
   5   128.24  132.93  137.98  141.99  144.89  146.72  147.55  147.43  146.37  144.37  141.39  137.39  132.09  125.37  117.40
   6   125.22  132.22  138.09  142.28  145.18  146.97  147.75  147.60  146.53  144.52  141.53  137.48  132.07  125.06  116.78
   7   111.31  130.47  138.29  142.73  145.57  147.27  147.98  147.78  146.68  144.64  141.61  137.46  131.70  123.45  110.00
   8   129.15  135.15  140.06  143.64  146.11  147.61  148.22  147.95  146.81  144.75  141.70  137.52  131.70  123.34  109.77
   9   136.29  138.83  141.87  144.57  146.62  147.92  148.42  148.09  146.91  144.84  141.80  137.68  132.10  124.67  115.17
  10   139.07  140.63  142.89  145.13  146.93  148.10  148.53  148.17  146.97  144.89  141.87  137.80  132.36  125.25  116.02
1
  HEAD             IN LAYER   2 AT END OF TIME STEP   1 IN STRESS PERIOD    1
  ---------------------------------------------------------------------------

           1       2       3       4       5       6       7       8       9      10      11      12      13      14      15
 ...........................................................................................................................
   1   132.00  134.27  137.42  140.47  142.94  144.59  145.35  145.17  144.01  141.85  138.64  134.35  129.01  123.02  117.82
   2   130.23  133.27  136.98  140.31  142.89  144.60  145.38  145.21  144.07  141.94  138.78  134.58  129.40  123.66  118.70
   3   127.65  132.16  136.56  140.18  142.89  144.65  145.45  145.30  144.19  142.10  139.02  134.97  130.07  124.82  120.58
   4   129.58  132.85  136.81  140.32  143.01  144.77  145.58  145.43  144.33  142.28  139.28  135.36  130.69  125.76  121.84
   5   130.78  133.56  137.23  140.61  143.24  144.96  145.75  145.59  144.49  142.46  139.49  135.65  131.08  126.33  122.67
   6   130.47  133.70  137.57  140.97  143.55  145.21  145.95  145.76  144.65  142.61  139.64  135.78  131.16  126.29  122.46
   7   129.56  133.95  138.12  141.48  143.95  145.52  146.18  145.95  144.80  142.74  139.74  135.82  131.05  125.81  121.28
   8   133.39  136.14  139.39  142.27  144.46  145.86  146.42  146.12  144.94  142.85  139.84  135.90  131.09  125.79  121.19
   9   136.60  138.31  140.70  143.04  144.93  146.15  146.61  146.26  145.04  142.94  139.93  136.02  131.32  126.29  122.23
  10   138.27  139.54  141.49  143.52  145.21  146.32  146.72  146.33  145.10  143.00  139.99  136.12  131.50  126.61  122.74

 HEAD WILL BE SAVED ON UNIT 1017 AT END OF TIME STEP    1, STRESS PERIOD    1
1
  VOLUME BUDGET FOR ENTIRE MODEL AT END OF TIME STEP    1, STRESS PERIOD   1
  ------------------------------------------------------------------------------

     CUMULATIVE VOLUME      L**3       RATES FOR THIS TIME STEP      L**3/T
     ------------------                 ------------------------

           IN:                                      IN:
           ---                                      ---
             STORAGE =           0.0000               STORAGE =           0.0000
    WELLS NEAR RIVER =           0.0000      WELLS NEAR RIVER =           0.0000
               RIVER =           0.0000                 RIVER =           0.0000
           GHB LAKES =           0.0000             GHB LAKES =           0.0000
            RECHARGE =       75156.2500              RECHARGE =       75156.2500
             ET SEGS =           0.0000               ET SEGS =           0.0000

            TOTAL IN =       75156.2500              TOTAL IN =       75156.2500

          OUT:                                     OUT:
          ----                                     ----
             STORAGE =           0.0000               STORAGE =           0.0000
    WELLS NEAR RIVER =           0.0000      WELLS NEAR RIVER =           0.0000
               RIVER =       36687.2900                 RIVER =       36687.2900
           GHB LAKES =       29385.9908             GHB LAKES =       29385.9908
            RECHARGE =           0.0000              RECHARGE =           0.0000
             ET SEGS =        9082.9700               ET SEGS =        9082.9700

           TOTAL OUT =       75156.2508             TOTAL OUT =       75156.2508

            IN - OUT =      -8.0139E-04              IN - OUT =      -8.0139E-04

 PERCENT DISCREPANCY =          -0.00     PERCENT DISCREPANCY =          -0.00






         TIME SUMMARY AT END OF TIME STEP    1 IN STRESS PERIOD    1
                    SECONDS     MINUTES      HOURS       DAYS        YEARS
                    -----------------------------------------------------------
   TIME STEP LENGTH  86400.      1440.0      24.000     1.00000     2.73785E-03
 STRESS PERIOD TIME  86400.      1440.0      24.000     1.00000     2.73785E-03
         TOTAL TIME  86400.      1440.0      24.000     1.00000     2.73785E-03


 UPDATING STORAGE VALUES
 #iconvert(nodes) is 0:confined, 1:convertible

                 ICONVERT =         1
 #ss(nodes) specific storage

         SPECIFIC STORAGE =  1.000000E-05
 #sy(nodes) specific yield

           SPECIFIC YIELD =  0.200000    
 END UPDATING STORAGE VALUES
 #        k         i         j      flow      var1    var2 var3

 WEL NO.  LAYER   ROW    COL     STRESS RATE  BOUNDARY NAME         VAR1            VAR2            VAR3            
 -------------------------------------------------------------------------------------------------------------------
      1      2      3      4       0.000      WELL_1                1.0000           2.000           3.000    
      2      2      8      4       0.000      WELL_2                 4.000           5.000           6.000    
      3      2      4      6     -10.000                             7.000           8.000           9.000    
      4      2      5      8      -20.00                             17.00           18.00           19.00    
      5      2      2      9      -40.00                             27.00           28.00           29.00    

 REUSING RIVS FROM LAST STRESS PERIOD

 GHB NO.  LAYER   ROW    COL       STAGE         CONDUCTANCE  BOUNDARY NAME         
 -----------------------------------------------------------------------------------
      1      1      3      1      100.00           1502.                      
      2      1      7      1       110.0           1402.      GHB2_UPPER      
      3      1      7      1       85.00           502.0      GHB2_LOWER      
 # Constant recharge applies stress period 8

 REUSING RCHS FROM LAST STRESS PERIOD
 #BEGIN PERIOD 2
 #  NLARRAY
 #    CONSTANT 1
 #  surface
 #    constant 140.0
 #  rate TimeArraySeries EtsArraySeries
 #  depth
 #    constant 10.0
 #  pxdp
 #    constant 0.2
 #  petm
 #    constant 0.3
 #  pxdp
 #    constant 0.5
 #  petm
 #    constant 0.1
 #end period

 REUSING ETSS FROM LAST STRESS PERIOD
WEL   no.    1 value from time series:   0.0000     for time: 1.0000     to  2.000    
WEL   no.    2 value from time series:   0.0000     for time: 1.0000     to  2.000    
RIV   no.    1 value from time series:   102.00     for time: 1.0000     to  2.000    
RIV   no.    2 value from time series:   102.00     for time: 1.0000     to  2.000    
RIV   no.    3 value from time series:   111.75     for time: 1.0000     to  2.000    
RIV   no.    4 value from time series:   111.75     for time: 1.0000     to  2.000    
RIV   no.    5 value from time series:   116.00     for time: 1.0000     to  2.000    
RIV   no.    6 value from time series:   116.00     for time: 1.0000     to  2.000    
RIV   no.    7 value from time series:   104.80     for time: 1.0000     to  2.000    
RIV   no.    8 value from time series:   104.80     for time: 1.0000     to  2.000    
RIV   no.    9 value from time series:   113.50     for time: 1.0000     to  2.000    
RIV   no.   10 value from time series:   113.50     for time: 1.0000     to  2.000    
WEL   no.    1 value from time series:   0.0000     for time: 1.0000     to  2.000    
WEL   no.    2 value from time series:   0.0000     for time: 1.0000     to  2.000    
RIV   no.    1 value from time series:   102.00     for time: 1.0000     to  2.000    
RIV   no.    2 value from time series:   102.00     for time: 1.0000     to  2.000    
RIV   no.    3 value from time series:   111.75     for time: 1.0000     to  2.000    
RIV   no.    4 value from time series:   111.75     for time: 1.0000     to  2.000    
RIV   no.    5 value from time series:   116.00     for time: 1.0000     to  2.000    
RIV   no.    6 value from time series:   116.00     for time: 1.0000     to  2.000    
RIV   no.    7 value from time series:   104.80     for time: 1.0000     to  2.000    
RIV   no.    8 value from time series:   104.80     for time: 1.0000     to  2.000    
RIV   no.    9 value from time series:   113.50     for time: 1.0000     to  2.000    
RIV   no.   10 value from time series:   113.50     for time: 1.0000     to  2.000    

 OUTPUT CONTROL FOR STRESS PERIOD    2   TIME STEP    1
    PRINT BUDGET
    PRINT HEAD
    PRINT HEAD FOR ALL LAYERS
    SAVE BUDGET
    SAVE HEAD
    SAVE HEAD FOR ALL LAYERS
 UBDSV1 SAVING          STORAGE ON UNIT   1016 AT TIME STEP      1, STRESS PERIOD      2
 UBDSV1 SAVING FLOW RIGHT FACE  ON UNIT   1016 AT TIME STEP      1, STRESS PERIOD      2
 UBDSV1 SAVING FLOW FRONT FACE  ON UNIT   1016 AT TIME STEP      1, STRESS PERIOD      2
 UBDSV1 SAVING FLOW LOWER FACE  ON UNIT   1016 AT TIME STEP      1, STRESS PERIOD      2
 UBDSV4 SAVING WELLS NEAR RIVER ON UNIT   1016 AT TIME STEP      1, STRESS PERIOD      2

 WELLS NEAR RIVER   PERIOD  2   STEP  1
 BOUNDARY      1   LAYER   2   ROW     3   COL     4   RATE     0.00000      WELL_1
 BOUNDARY      2   LAYER   2   ROW     8   COL     4   RATE     0.00000      WELL_2
 BOUNDARY      3   LAYER   2   ROW     4   COL     6   RATE   -10.00000    
 BOUNDARY      4   LAYER   2   ROW     5   COL     8   RATE    -20.0000    
 BOUNDARY      5   LAYER   2   ROW     2   COL     9   RATE    -40.0000    
 UBDSV4 SAVING RIVER            ON UNIT   1016 AT TIME STEP      1, STRESS PERIOD      2

 RIVER              PERIOD  2   STEP  1
 BOUNDARY      1   LAYER   1   ROW     1   COL    15   RATE    -3695.34    
 BOUNDARY      2   LAYER   1   ROW     2   COL    15   RATE    -4795.30      RIV2
 BOUNDARY      3   LAYER   1   ROW     3   COL    15   RATE    -1657.05      RIV3
 BOUNDARY      4   LAYER   1   ROW     4   COL    15   RATE    -3146.55    
 BOUNDARY      5   LAYER   1   ROW     5   COL    15   RATE    -1435.32    
 BOUNDARY      6   LAYER   1   ROW     6   COL    15   RATE    -810.332    
 BOUNDARY      7   LAYER   1   ROW     7   COL    15   RATE    -5268.71      RIVX
 BOUNDARY      8   LAYER   1   ROW     8   COL    15   RATE    -5038.82      RIVX
 BOUNDARY      9   LAYER   1   ROW     9   COL    15   RATE    -1709.60      RIVX
 BOUNDARY     10   LAYER   1   ROW    10   COL    15   RATE    -2561.34    

 GHB LAKES          PERIOD  2   STEP  1
 BOUNDARY      1   LAYER   1   ROW     3   COL     1   RATE    -14421.1    
 BOUNDARY      2   LAYER   1   ROW     7   COL     1   RATE    -1829.50      GHB2_UPPER
 BOUNDARY      3   LAYER   1   ROW     7   COL     1   RATE    -13205.1      GHB2_LOWER
 UBDSV4 SAVING RECHARGE         ON UNIT   1016 AT TIME STEP      1, STRESS PERIOD      2

 RECHARGE           PERIOD  2   STEP  1
 BOUNDARY      1   LAYER   1   ROW     1   COL     1   RATE     503.125    
 BOUNDARY      2   LAYER   1   ROW     1   COL     2   RATE     503.125    
 BOUNDARY      3   LAYER   1   ROW     1   COL     3   RATE     503.125    
 BOUNDARY      4   LAYER   1   ROW     1   COL     4   RATE     503.125    
 BOUNDARY      5   LAYER   1   ROW     1   COL     5   RATE     503.125    
 BOUNDARY      6   LAYER   1   ROW     1   COL     6   RATE     503.125    
 BOUNDARY      7   LAYER   1   ROW     1   COL     7   RATE     503.125    
 BOUNDARY      8   LAYER   1   ROW     1   COL     8   RATE     503.125    
 BOUNDARY      9   LAYER   1   ROW     1   COL     9   RATE     503.125    
 BOUNDARY     10   LAYER   1   ROW     1   COL    10   RATE     503.125    
 BOUNDARY     11   LAYER   1   ROW     1   COL    11   RATE     503.125    
 BOUNDARY     12   LAYER   1   ROW     1   COL    12   RATE     503.125    
 BOUNDARY     13   LAYER   1   ROW     1   COL    13   RATE     503.125    
 BOUNDARY     14   LAYER   1   ROW     1   COL    14   RATE     503.125    
 BOUNDARY     15   LAYER   1   ROW     1   COL    15   RATE     503.125    
 BOUNDARY     16   LAYER   1   ROW     2   COL     1   RATE     503.125    
 BOUNDARY     17   LAYER   1   ROW     2   COL     2   RATE     503.125    
 BOUNDARY     18   LAYER   1   ROW     2   COL     3   RATE     503.125    
 BOUNDARY     19   LAYER   1   ROW     2   COL     4   RATE     503.125    
 BOUNDARY     20   LAYER   1   ROW     2   COL     5   RATE     503.125    
 BOUNDARY     21   LAYER   1   ROW     2   COL     6   RATE     503.125    
 BOUNDARY     22   LAYER   1   ROW     2   COL     7   RATE     503.125    
 BOUNDARY     23   LAYER   1   ROW     2   COL     8   RATE     503.125    
 BOUNDARY     24   LAYER   1   ROW     2   COL     9   RATE     503.125    
 BOUNDARY     25   LAYER   1   ROW     2   COL    10   RATE     503.125    
 BOUNDARY     26   LAYER   1   ROW     2   COL    11   RATE     503.125    
 BOUNDARY     27   LAYER   1   ROW     2   COL    12   RATE     503.125    
 BOUNDARY     28   LAYER   1   ROW     2   COL    13   RATE     503.125    
 BOUNDARY     29   LAYER   1   ROW     2   COL    14   RATE     503.125    
 BOUNDARY     30   LAYER   1   ROW     2   COL    15   RATE     503.125    
 BOUNDARY     31   LAYER   1   ROW     3   COL     1   RATE     503.125    
 BOUNDARY     32   LAYER   1   ROW     3   COL     2   RATE     503.125    
 BOUNDARY     33   LAYER   1   ROW     3   COL     3   RATE     503.125    
 BOUNDARY     34   LAYER   1   ROW     3   COL     4   RATE     503.125    
 BOUNDARY     35   LAYER   1   ROW     3   COL     5   RATE     503.125    
 BOUNDARY     36   LAYER   1   ROW     3   COL     6   RATE     503.125    
 BOUNDARY     37   LAYER   1   ROW     3   COL     7   RATE     503.125    
 BOUNDARY     38   LAYER   1   ROW     3   COL     8   RATE     503.125    
 BOUNDARY     39   LAYER   1   ROW     3   COL     9   RATE     503.125    
 BOUNDARY     40   LAYER   1   ROW     3   COL    10   RATE     503.125    
 BOUNDARY     41   LAYER   1   ROW     3   COL    11   RATE     503.125    
 BOUNDARY     42   LAYER   1   ROW     3   COL    12   RATE     503.125    
 BOUNDARY     43   LAYER   1   ROW     3   COL    13   RATE     503.125    
 BOUNDARY     44   LAYER   1   ROW     3   COL    14   RATE     503.125    
 BOUNDARY     45   LAYER   1   ROW     3   COL    15   RATE     503.125    
 BOUNDARY     46   LAYER   1   ROW     4   COL     1   RATE     503.125    
 BOUNDARY     47   LAYER   1   ROW     4   COL     2   RATE     503.125    
 BOUNDARY     48   LAYER   1   ROW     4   COL     3   RATE     503.125    
 BOUNDARY     49   LAYER   1   ROW     4   COL     4   RATE     503.125    
 BOUNDARY     50   LAYER   1   ROW     4   COL     5   RATE     503.125    
 BOUNDARY     51   LAYER   1   ROW     4   COL     6   RATE     503.125    
 BOUNDARY     52   LAYER   1   ROW     4   COL     7   RATE     503.125    
 BOUNDARY     53   LAYER   1   ROW     4   COL     8   RATE     503.125    
 BOUNDARY     54   LAYER   1   ROW     4   COL     9   RATE     503.125    
 BOUNDARY     55   LAYER   1   ROW     4   COL    10   RATE     503.125    
 BOUNDARY     56   LAYER   1   ROW     4   COL    11   RATE     503.125    
 BOUNDARY     57   LAYER   1   ROW     4   COL    12   RATE     503.125    
 BOUNDARY     58   LAYER   1   ROW     4   COL    13   RATE     503.125    
 BOUNDARY     59   LAYER   1   ROW     4   COL    14   RATE     503.125    
 BOUNDARY     60   LAYER   1   ROW     4   COL    15   RATE     503.125    
 BOUNDARY     61   LAYER   1   ROW     5   COL     1   RATE     503.125    
 BOUNDARY     62   LAYER   1   ROW     5   COL     2   RATE     503.125    
 BOUNDARY     63   LAYER   1   ROW     5   COL     3   RATE     503.125    
 BOUNDARY     64   LAYER   1   ROW     5   COL     4   RATE     503.125    
 BOUNDARY     65   LAYER   1   ROW     5   COL     5   RATE     503.125    
 BOUNDARY     66   LAYER   1   ROW     5   COL     6   RATE     503.125    
 BOUNDARY     67   LAYER   1   ROW     5   COL     7   RATE     503.125    
 BOUNDARY     68   LAYER   1   ROW     5   COL     8   RATE     503.125    
 BOUNDARY     69   LAYER   1   ROW     5   COL     9   RATE     503.125    
 BOUNDARY     70   LAYER   1   ROW     5   COL    10   RATE     503.125    
 BOUNDARY     71   LAYER   1   ROW     5   COL    11   RATE     503.125    
 BOUNDARY     72   LAYER   1   ROW     5   COL    12   RATE     503.125    
 BOUNDARY     73   LAYER   1   ROW     5   COL    13   RATE     503.125    
 BOUNDARY     74   LAYER   1   ROW     5   COL    14   RATE     503.125    
 BOUNDARY     75   LAYER   1   ROW     5   COL    15   RATE     503.125    
 BOUNDARY     76   LAYER   1   ROW     6   COL     1   RATE     503.125    
 BOUNDARY     77   LAYER   1   ROW     6   COL     2   RATE     503.125    
 BOUNDARY     78   LAYER   1   ROW     6   COL     3   RATE     503.125    
 BOUNDARY     79   LAYER   1   ROW     6   COL     4   RATE     503.125    
 BOUNDARY     80   LAYER   1   ROW     6   COL     5   RATE     503.125    
 BOUNDARY     81   LAYER   1   ROW     6   COL     6   RATE     503.125    
 BOUNDARY     82   LAYER   1   ROW     6   COL     7   RATE     503.125    
 BOUNDARY     83   LAYER   1   ROW     6   COL     8   RATE     503.125    
 BOUNDARY     84   LAYER   1   ROW     6   COL     9   RATE     503.125    
 BOUNDARY     85   LAYER   1   ROW     6   COL    10   RATE     503.125    
 BOUNDARY     86   LAYER   1   ROW     6   COL    11   RATE     503.125    
 BOUNDARY     87   LAYER   1   ROW     6   COL    12   RATE     503.125    
 BOUNDARY     88   LAYER   1   ROW     6   COL    13   RATE     503.125    
 BOUNDARY     89   LAYER   1   ROW     6   COL    14   RATE     503.125    
 BOUNDARY     90   LAYER   1   ROW     6   COL    15   RATE     503.125    
 BOUNDARY     91   LAYER   1   ROW     7   COL     1   RATE     503.125    
 BOUNDARY     92   LAYER   1   ROW     7   COL     2   RATE     503.125    
 BOUNDARY     93   LAYER   1   ROW     7   COL     3   RATE     503.125    
 BOUNDARY     94   LAYER   1   ROW     7   COL     4   RATE     503.125    
 BOUNDARY     95   LAYER   1   ROW     7   COL     5   RATE     503.125    
 BOUNDARY     96   LAYER   1   ROW     7   COL     6   RATE     503.125    
 BOUNDARY     97   LAYER   1   ROW     7   COL     7   RATE     503.125    
 BOUNDARY     98   LAYER   1   ROW     7   COL     8   RATE     503.125    
 BOUNDARY     99   LAYER   1   ROW     7   COL     9   RATE     503.125    
 BOUNDARY    100   LAYER   1   ROW     7   COL    10   RATE     503.125    
 BOUNDARY    101   LAYER   1   ROW     7   COL    11   RATE     503.125    
 BOUNDARY    102   LAYER   1   ROW     7   COL    12   RATE     503.125    
 BOUNDARY    103   LAYER   1   ROW     7   COL    13   RATE     503.125    
 BOUNDARY    104   LAYER   1   ROW     7   COL    14   RATE     503.125    
 BOUNDARY    105   LAYER   1   ROW     7   COL    15   RATE     503.125    
 BOUNDARY    106   LAYER   1   ROW     8   COL     1   RATE     503.125    
 BOUNDARY    107   LAYER   1   ROW     8   COL     2   RATE     503.125    
 BOUNDARY    108   LAYER   1   ROW     8   COL     3   RATE     503.125    
 BOUNDARY    109   LAYER   1   ROW     8   COL     4   RATE     503.125    
 BOUNDARY    110   LAYER   1   ROW     8   COL     5   RATE     503.125    
 BOUNDARY    111   LAYER   1   ROW     8   COL     6   RATE     503.125    
 BOUNDARY    112   LAYER   1   ROW     8   COL     7   RATE     503.125    
 BOUNDARY    113   LAYER   1   ROW     8   COL     8   RATE     503.125    
 BOUNDARY    114   LAYER   1   ROW     8   COL     9   RATE     503.125    
 BOUNDARY    115   LAYER   1   ROW     8   COL    10   RATE     503.125    
 BOUNDARY    116   LAYER   1   ROW     8   COL    11   RATE     503.125    
 BOUNDARY    117   LAYER   1   ROW     8   COL    12   RATE     503.125    
 BOUNDARY    118   LAYER   1   ROW     8   COL    13   RATE     503.125    
 BOUNDARY    119   LAYER   1   ROW     8   COL    14   RATE     503.125    
 BOUNDARY    120   LAYER   1   ROW     8   COL    15   RATE     503.125    
 BOUNDARY    121   LAYER   1   ROW     9   COL     1   RATE     503.125    
 BOUNDARY    122   LAYER   1   ROW     9   COL     2   RATE     503.125    
 BOUNDARY    123   LAYER   1   ROW     9   COL     3   RATE     503.125    
 BOUNDARY    124   LAYER   1   ROW     9   COL     4   RATE     503.125    
 BOUNDARY    125   LAYER   1   ROW     9   COL     5   RATE     503.125    
 BOUNDARY    126   LAYER   1   ROW     9   COL     6   RATE     503.125    
 BOUNDARY    127   LAYER   1   ROW     9   COL     7   RATE     503.125    
 BOUNDARY    128   LAYER   1   ROW     9   COL     8   RATE     503.125    
 BOUNDARY    129   LAYER   1   ROW     9   COL     9   RATE     503.125    
 BOUNDARY    130   LAYER   1   ROW     9   COL    10   RATE     503.125    
 BOUNDARY    131   LAYER   1   ROW     9   COL    11   RATE     503.125    
 BOUNDARY    132   LAYER   1   ROW     9   COL    12   RATE     503.125    
 BOUNDARY    133   LAYER   1   ROW     9   COL    13   RATE     503.125    
 BOUNDARY    134   LAYER   1   ROW     9   COL    14   RATE     503.125    
 BOUNDARY    135   LAYER   1   ROW     9   COL    15   RATE     503.125    
 BOUNDARY    136   LAYER   1   ROW    10   COL     1   RATE     503.125    
 BOUNDARY    137   LAYER   1   ROW    10   COL     2   RATE     503.125    
 BOUNDARY    138   LAYER   1   ROW    10   COL     3   RATE     503.125    
 BOUNDARY    139   LAYER   1   ROW    10   COL     4   RATE     503.125    
 BOUNDARY    140   LAYER   1   ROW    10   COL     5   RATE     503.125    
 BOUNDARY    141   LAYER   1   ROW    10   COL     6   RATE     503.125    
 BOUNDARY    142   LAYER   1   ROW    10   COL     7   RATE     503.125    
 BOUNDARY    143   LAYER   1   ROW    10   COL     8   RATE     503.125    
 BOUNDARY    144   LAYER   1   ROW    10   COL     9   RATE     503.125    
 BOUNDARY    145   LAYER   1   ROW    10   COL    10   RATE     503.125    
 BOUNDARY    146   LAYER   1   ROW    10   COL    11   RATE     503.125    
 BOUNDARY    147   LAYER   1   ROW    10   COL    12   RATE     503.125    
 BOUNDARY    148   LAYER   1   ROW    10   COL    13   RATE     503.125    
 BOUNDARY    149   LAYER   1   ROW    10   COL    14   RATE     503.125    
 BOUNDARY    150   LAYER   1   ROW    10   COL    15   RATE     503.125    
 UBDSV4 SAVING ET SEGS          ON UNIT   1016 AT TIME STEP      1, STRESS PERIOD      2

 ET SEGS            PERIOD  2   STEP  1
 BOUNDARY      1   LAYER   1   ROW     1   COL     1   RATE    -2.06495    
 BOUNDARY      2   LAYER   1   ROW     1   COL     2   RATE    -8.91757    
 BOUNDARY      3   LAYER   1   ROW     1   COL     3   RATE    -47.6446    
 BOUNDARY      4   LAYER   1   ROW     1   COL     4   RATE   -100.0000    
 BOUNDARY      5   LAYER   1   ROW     1   COL     5   RATE   -100.0000    
 BOUNDARY      6   LAYER   1   ROW     1   COL     6   RATE   -100.0000    
 BOUNDARY      7   LAYER   1   ROW     1   COL     7   RATE   -100.0000    
 BOUNDARY      8   LAYER   1   ROW     1   COL     8   RATE   -100.0000    
 BOUNDARY      9   LAYER   1   ROW     1   COL     9   RATE   -100.0000    
 BOUNDARY     10   LAYER   1   ROW     1   COL    10   RATE   -100.0000    
 BOUNDARY     11   LAYER   1   ROW     1   COL    11   RATE   -100.0000    
 BOUNDARY     12   LAYER   1   ROW     1   COL    12   RATE    -16.4959    
 BOUNDARY     13   LAYER   1   ROW     1   COL    13   RATE     0.00000    
 BOUNDARY     14   LAYER   1   ROW     1   COL    14   RATE     0.00000    
 BOUNDARY     15   LAYER   1   ROW     1   COL    15   RATE     0.00000    
 BOUNDARY     16   LAYER   1   ROW     2   COL     1   RATE     0.00000    
 BOUNDARY     17   LAYER   1   ROW     2   COL     2   RATE    -4.40243    
 BOUNDARY     18   LAYER   1   ROW     2   COL     3   RATE    -27.9897    
 BOUNDARY     19   LAYER   1   ROW     2   COL     4   RATE   -100.0000    
 BOUNDARY     20   LAYER   1   ROW     2   COL     5   RATE   -100.0000    
 BOUNDARY     21   LAYER   1   ROW     2   COL     6   RATE   -100.0000    
 BOUNDARY     22   LAYER   1   ROW     2   COL     7   RATE   -100.0000    
 BOUNDARY     23   LAYER   1   ROW     2   COL     8   RATE   -100.0000    
 BOUNDARY     24   LAYER   1   ROW     2   COL     9   RATE   -100.0000    
 BOUNDARY     25   LAYER   1   ROW     2   COL    10   RATE   -100.0000    
 BOUNDARY     26   LAYER   1   ROW     2   COL    11   RATE   -100.0000    
 BOUNDARY     27   LAYER   1   ROW     2   COL    12   RATE    -18.2357    
 BOUNDARY     28   LAYER   1   ROW     2   COL    13   RATE     0.00000    
 BOUNDARY     29   LAYER   1   ROW     2   COL    14   RATE     0.00000    
 BOUNDARY     30   LAYER   1   ROW     2   COL    15   RATE     0.00000    
 BOUNDARY     31   LAYER   1   ROW     3   COL     1   RATE     0.00000    
 BOUNDARY     32   LAYER   1   ROW     3   COL     2   RATE     0.00000    
 BOUNDARY     33   LAYER   1   ROW     3   COL     3   RATE    -22.0009    
 BOUNDARY     34   LAYER   1   ROW     3   COL     4   RATE   -100.0000    
 BOUNDARY     35   LAYER   1   ROW     3   COL     5   RATE   -100.0000    
 BOUNDARY     36   LAYER   1   ROW     3   COL     6   RATE   -100.0000    
 BOUNDARY     37   LAYER   1   ROW     3   COL     7   RATE   -100.0000    
 BOUNDARY     38   LAYER   1   ROW     3   COL     8   RATE   -100.0000    
 BOUNDARY     39   LAYER   1   ROW     3   COL     9   RATE   -100.0000    
 BOUNDARY     40   LAYER   1   ROW     3   COL    10   RATE   -100.0000    
 BOUNDARY     41   LAYER   1   ROW     3   COL    11   RATE   -100.0000    
 BOUNDARY     42   LAYER   1   ROW     3   COL    12   RATE    -21.1700    
 BOUNDARY     43   LAYER   1   ROW     3   COL    13   RATE    -1.78408    
 BOUNDARY     44   LAYER   1   ROW     3   COL    14   RATE     0.00000    
 BOUNDARY     45   LAYER   1   ROW     3   COL    15   RATE     0.00000    
 BOUNDARY     46   LAYER   1   ROW     4   COL     1   RATE     0.00000    
 BOUNDARY     47   LAYER   1   ROW     4   COL     2   RATE    -2.88851    
 BOUNDARY     48   LAYER   1   ROW     4   COL     3   RATE    -25.8659    
 BOUNDARY     49   LAYER   1   ROW     4   COL     4   RATE   -100.0000    
 BOUNDARY     50   LAYER   1   ROW     4   COL     5   RATE   -100.0000    
 BOUNDARY     51   LAYER   1   ROW     4   COL     6   RATE   -100.0000    
 BOUNDARY     52   LAYER   1   ROW     4   COL     7   RATE   -100.0000    
 BOUNDARY     53   LAYER   1   ROW     4   COL     8   RATE   -100.0000    
 BOUNDARY     54   LAYER   1   ROW     4   COL     9   RATE   -100.0000    
 BOUNDARY     55   LAYER   1   ROW     4   COL    10   RATE   -100.0000    
 BOUNDARY     56   LAYER   1   ROW     4   COL    11   RATE   -100.0000    
 BOUNDARY     57   LAYER   1   ROW     4   COL    12   RATE    -23.9711    
 BOUNDARY     58   LAYER   1   ROW     4   COL    13   RATE    -3.25041    
 BOUNDARY     59   LAYER   1   ROW     4   COL    14   RATE     0.00000    
 BOUNDARY     60   LAYER   1   ROW     4   COL    15   RATE     0.00000    
 BOUNDARY     61   LAYER   1   ROW     5   COL     1   RATE     0.00000    
 BOUNDARY     62   LAYER   1   ROW     5   COL     2   RATE    -5.86177    
 BOUNDARY     63   LAYER   1   ROW     5   COL     3   RATE    -29.8533    
 BOUNDARY     64   LAYER   1   ROW     5   COL     4   RATE   -100.0000    
 BOUNDARY     65   LAYER   1   ROW     5   COL     5   RATE   -100.0000    
 BOUNDARY     66   LAYER   1   ROW     5   COL     6   RATE   -100.0000    
 BOUNDARY     67   LAYER   1   ROW     5   COL     7   RATE   -100.0000    
 BOUNDARY     68   LAYER   1   ROW     5   COL     8   RATE   -100.0000    
 BOUNDARY     69   LAYER   1   ROW     5   COL     9   RATE   -100.0000    
 BOUNDARY     70   LAYER   1   ROW     5   COL    10   RATE   -100.0000    
 BOUNDARY     71   LAYER   1   ROW     5   COL    11   RATE   -100.0000    
 BOUNDARY     72   LAYER   1   ROW     5   COL    12   RATE    -25.9136    
 BOUNDARY     73   LAYER   1   ROW     5   COL    13   RATE    -4.17083    
 BOUNDARY     74   LAYER   1   ROW     5   COL    14   RATE     0.00000    
 BOUNDARY     75   LAYER   1   ROW     5   COL    15   RATE     0.00000    
 BOUNDARY     76   LAYER   1   ROW     6   COL     1   RATE     0.00000    
 BOUNDARY     77   LAYER   1   ROW     6   COL     2   RATE    -4.43380    
 BOUNDARY     78   LAYER   1   ROW     6   COL     3   RATE    -33.1011    
 BOUNDARY     79   LAYER   1   ROW     6   COL     4   RATE   -100.0000    
 BOUNDARY     80   LAYER   1   ROW     6   COL     5   RATE   -100.0000    
 BOUNDARY     81   LAYER   1   ROW     6   COL     6   RATE   -100.0000    
 BOUNDARY     82   LAYER   1   ROW     6   COL     7   RATE   -100.0000    
 BOUNDARY     83   LAYER   1   ROW     6   COL     8   RATE   -100.0000    
 BOUNDARY     84   LAYER   1   ROW     6   COL     9   RATE   -100.0000    
 BOUNDARY     85   LAYER   1   ROW     6   COL    10   RATE   -100.0000    
 BOUNDARY     86   LAYER   1   ROW     6   COL    11   RATE   -100.0000    
 BOUNDARY     87   LAYER   1   ROW     6   COL    12   RATE    -26.5628    
 BOUNDARY     88   LAYER   1   ROW     6   COL    13   RATE    -4.13070    
 BOUNDARY     89   LAYER   1   ROW     6   COL    14   RATE     0.00000    
 BOUNDARY     90   LAYER   1   ROW     6   COL    15   RATE     0.00000    
 BOUNDARY     91   LAYER   1   ROW     7   COL     1   RATE     0.00000    
 BOUNDARY     92   LAYER   1   ROW     7   COL     2   RATE   -0.942299    
 BOUNDARY     93   LAYER   1   ROW     7   COL     3   RATE    -39.9881    
 BOUNDARY     94   LAYER   1   ROW     7   COL     4   RATE   -100.0000    
 BOUNDARY     95   LAYER   1   ROW     7   COL     5   RATE   -100.0000    
 BOUNDARY     96   LAYER   1   ROW     7   COL     6   RATE   -100.0000    
 BOUNDARY     97   LAYER   1   ROW     7   COL     7   RATE   -100.0000    
 BOUNDARY     98   LAYER   1   ROW     7   COL     8   RATE   -100.0000    
 BOUNDARY     99   LAYER   1   ROW     7   COL     9   RATE   -100.0000    
 BOUNDARY    100   LAYER   1   ROW     7   COL    10   RATE   -100.0000    
 BOUNDARY    101   LAYER   1   ROW     7   COL    11   RATE   -100.0000    
 BOUNDARY    102   LAYER   1   ROW     7   COL    12   RATE    -26.3973    
 BOUNDARY    103   LAYER   1   ROW     7   COL    13   RATE    -3.39173    
 BOUNDARY    104   LAYER   1   ROW     7   COL    14   RATE     0.00000    
 BOUNDARY    105   LAYER   1   ROW     7   COL    15   RATE     0.00000    
 BOUNDARY    106   LAYER   1   ROW     8   COL     1   RATE     0.00000    
 BOUNDARY    107   LAYER   1   ROW     8   COL     2   RATE    -10.9920    
 BOUNDARY    108   LAYER   1   ROW     8   COL     3   RATE   -100.0000    
 BOUNDARY    109   LAYER   1   ROW     8   COL     4   RATE   -100.0000    
 BOUNDARY    110   LAYER   1   ROW     8   COL     5   RATE   -100.0000    
 BOUNDARY    111   LAYER   1   ROW     8   COL     6   RATE   -100.0000    
 BOUNDARY    112   LAYER   1   ROW     8   COL     7   RATE   -100.0000    
 BOUNDARY    113   LAYER   1   ROW     8   COL     8   RATE   -100.0000    
 BOUNDARY    114   LAYER   1   ROW     8   COL     9   RATE   -100.0000    
 BOUNDARY    115   LAYER   1   ROW     8   COL    10   RATE   -100.0000    
 BOUNDARY    116   LAYER   1   ROW     8   COL    11   RATE   -100.0000    
 BOUNDARY    117   LAYER   1   ROW     8   COL    12   RATE    -26.7823    
 BOUNDARY    118   LAYER   1   ROW     8   COL    13   RATE    -3.39049    
 BOUNDARY    119   LAYER   1   ROW     8   COL    14   RATE     0.00000    
 BOUNDARY    120   LAYER   1   ROW     8   COL    15   RATE     0.00000    
 BOUNDARY    121   LAYER   1   ROW     9   COL     1   RATE    -18.5701    
 BOUNDARY    122   LAYER   1   ROW     9   COL     2   RATE    -59.0727    
 BOUNDARY    123   LAYER   1   ROW     9   COL     3   RATE   -100.0000    
 BOUNDARY    124   LAYER   1   ROW     9   COL     4   RATE   -100.0000    
 BOUNDARY    125   LAYER   1   ROW     9   COL     5   RATE   -100.0000    
 BOUNDARY    126   LAYER   1   ROW     9   COL     6   RATE   -100.0000    
 BOUNDARY    127   LAYER   1   ROW     9   COL     7   RATE   -100.0000    
 BOUNDARY    128   LAYER   1   ROW     9   COL     8   RATE   -100.0000    
 BOUNDARY    129   LAYER   1   ROW     9   COL     9   RATE   -100.0000    
[...]
 BOUNDARY    115   LAYER   1   ROW     8   COL    10   RATE     250.000    
 BOUNDARY    116   LAYER   1   ROW     8   COL    11   RATE     250.000    
 BOUNDARY    117   LAYER   1   ROW     8   COL    12   RATE     250.000    
 BOUNDARY    118   LAYER   1   ROW     8   COL    13   RATE     250.000    
 BOUNDARY    119   LAYER   1   ROW     8   COL    14   RATE     250.000    
 BOUNDARY    120   LAYER   1   ROW     8   COL    15   RATE     250.000    
 BOUNDARY    121   LAYER   1   ROW     9   COL     1   RATE     250.000    
 BOUNDARY    122   LAYER   1   ROW     9   COL     2   RATE     250.000    
 BOUNDARY    123   LAYER   1   ROW     9   COL     3   RATE     250.000    
 BOUNDARY    124   LAYER   1   ROW     9   COL     4   RATE     250.000    
 BOUNDARY    125   LAYER   1   ROW     9   COL     5   RATE     250.000    
 BOUNDARY    126   LAYER   1   ROW     9   COL     6   RATE     250.000    
 BOUNDARY    127   LAYER   1   ROW     9   COL     7   RATE     250.000    
 BOUNDARY    128   LAYER   1   ROW     9   COL     8   RATE     250.000    
 BOUNDARY    129   LAYER   1   ROW     9   COL     9   RATE     250.000    
 BOUNDARY    130   LAYER   1   ROW     9   COL    10   RATE     250.000    
 BOUNDARY    131   LAYER   1   ROW     9   COL    11   RATE     250.000    
 BOUNDARY    132   LAYER   1   ROW     9   COL    12   RATE     250.000    
 BOUNDARY    133   LAYER   1   ROW     9   COL    13   RATE     250.000    
 BOUNDARY    134   LAYER   1   ROW     9   COL    14   RATE     250.000    
 BOUNDARY    135   LAYER   1   ROW     9   COL    15   RATE     250.000    
 BOUNDARY    136   LAYER   1   ROW    10   COL     1   RATE     250.000    
 BOUNDARY    137   LAYER   1   ROW    10   COL     2   RATE     250.000    
 BOUNDARY    138   LAYER   1   ROW    10   COL     3   RATE     250.000    
 BOUNDARY    139   LAYER   1   ROW    10   COL     4   RATE     250.000    
 BOUNDARY    140   LAYER   1   ROW    10   COL     5   RATE     250.000    
 BOUNDARY    141   LAYER   1   ROW    10   COL     6   RATE     250.000    
 BOUNDARY    142   LAYER   1   ROW    10   COL     7   RATE     250.000    
 BOUNDARY    143   LAYER   1   ROW    10   COL     8   RATE     250.000    
 BOUNDARY    144   LAYER   1   ROW    10   COL     9   RATE     250.000    
 BOUNDARY    145   LAYER   1   ROW    10   COL    10   RATE     250.000    
 BOUNDARY    146   LAYER   1   ROW    10   COL    11   RATE     250.000    
 BOUNDARY    147   LAYER   1   ROW    10   COL    12   RATE     250.000    
 BOUNDARY    148   LAYER   1   ROW    10   COL    13   RATE     250.000    
 BOUNDARY    149   LAYER   1   ROW    10   COL    14   RATE     250.000    
 BOUNDARY    150   LAYER   1   ROW    10   COL    15   RATE     250.000    
 UBDSV4 SAVING ET SEGS          ON UNIT   1016 AT TIME STEP     31, STRESS PERIOD      8

 ET SEGS            PERIOD  8   STEP 31
 BOUNDARY      1   LAYER   1   ROW     1   COL     1   RATE    -5.65013    
 BOUNDARY      2   LAYER   1   ROW     1   COL     2   RATE    -19.1046    
 BOUNDARY      3   LAYER   1   ROW     1   COL     3   RATE   -100.0000    
 BOUNDARY      4   LAYER   1   ROW     1   COL     4   RATE   -100.0000    
 BOUNDARY      5   LAYER   1   ROW     1   COL     5   RATE   -100.0000    
 BOUNDARY      6   LAYER   1   ROW     1   COL     6   RATE   -100.0000    
 BOUNDARY      7   LAYER   1   ROW     1   COL     7   RATE   -100.0000    
 BOUNDARY      8   LAYER   1   ROW     1   COL     8   RATE   -100.0000    
 BOUNDARY      9   LAYER   1   ROW     1   COL     9   RATE   -100.0000    
 BOUNDARY     10   LAYER   1   ROW     1   COL    10   RATE   -100.0000    
 BOUNDARY     11   LAYER   1   ROW     1   COL    11   RATE   -100.0000    
 BOUNDARY     12   LAYER   1   ROW     1   COL    12   RATE    -29.9374    
 BOUNDARY     13   LAYER   1   ROW     1   COL    13   RATE    -2.47946    
 BOUNDARY     14   LAYER   1   ROW     1   COL    14   RATE     0.00000    
 BOUNDARY     15   LAYER   1   ROW     1   COL    15   RATE     0.00000    
 BOUNDARY     16   LAYER   1   ROW     2   COL     1   RATE     0.00000    
 BOUNDARY     17   LAYER   1   ROW     2   COL     2   RATE    -7.96523    
 BOUNDARY     18   LAYER   1   ROW     2   COL     3   RATE    -88.2329    
 BOUNDARY     19   LAYER   1   ROW     2   COL     4   RATE   -100.0000    
 BOUNDARY     20   LAYER   1   ROW     2   COL     5   RATE   -100.0000    
 BOUNDARY     21   LAYER   1   ROW     2   COL     6   RATE   -100.0000    
 BOUNDARY     22   LAYER   1   ROW     2   COL     7   RATE   -100.0000    
 BOUNDARY     23   LAYER   1   ROW     2   COL     8   RATE   -100.0000    
 BOUNDARY     24   LAYER   1   ROW     2   COL     9   RATE   -100.0000    
 BOUNDARY     25   LAYER   1   ROW     2   COL    10   RATE   -100.0000    
 BOUNDARY     26   LAYER   1   ROW     2   COL    11   RATE   -100.0000    
 BOUNDARY     27   LAYER   1   ROW     2   COL    12   RATE    -38.3386    
 BOUNDARY     28   LAYER   1   ROW     2   COL    13   RATE    -3.43962    
 BOUNDARY     29   LAYER   1   ROW     2   COL    14   RATE     0.00000    
 BOUNDARY     30   LAYER   1   ROW     2   COL    15   RATE     0.00000    
 BOUNDARY     31   LAYER   1   ROW     3   COL     1   RATE     0.00000    
 BOUNDARY     32   LAYER   1   ROW     3   COL     2   RATE   -0.724177    
 BOUNDARY     33   LAYER   1   ROW     3   COL     3   RATE    -55.6551    
 BOUNDARY     34   LAYER   1   ROW     3   COL     4   RATE   -100.0000    
 BOUNDARY     35   LAYER   1   ROW     3   COL     5   RATE   -100.0000    
 BOUNDARY     36   LAYER   1   ROW     3   COL     6   RATE   -100.0000    
 BOUNDARY     37   LAYER   1   ROW     3   COL     7   RATE   -100.0000    
 BOUNDARY     38   LAYER   1   ROW     3   COL     8   RATE   -100.0000    
 BOUNDARY     39   LAYER   1   ROW     3   COL     9   RATE   -100.0000    
 BOUNDARY     40   LAYER   1   ROW     3   COL    10   RATE   -100.0000    
 BOUNDARY     41   LAYER   1   ROW     3   COL    11   RATE   -100.0000    
 BOUNDARY     42   LAYER   1   ROW     3   COL    12   RATE    -52.9631    
 BOUNDARY     43   LAYER   1   ROW     3   COL    13   RATE    -5.18695    
 BOUNDARY     44   LAYER   1   ROW     3   COL    14   RATE     0.00000    
 BOUNDARY     45   LAYER   1   ROW     3   COL    15   RATE     0.00000    
 BOUNDARY     46   LAYER   1   ROW     4   COL     1   RATE     0.00000    
 BOUNDARY     47   LAYER   1   ROW     4   COL     2   RATE    -6.36231    
 BOUNDARY     48   LAYER   1   ROW     4   COL     3   RATE    -76.8911    
 BOUNDARY     49   LAYER   1   ROW     4   COL     4   RATE   -100.0000    
 BOUNDARY     50   LAYER   1   ROW     4   COL     5   RATE   -100.0000    
 BOUNDARY     51   LAYER   1   ROW     4   COL     6   RATE   -100.0000    
 BOUNDARY     52   LAYER   1   ROW     4   COL     7   RATE   -100.0000    
 BOUNDARY     53   LAYER   1   ROW     4   COL     8   RATE   -100.0000    
 BOUNDARY     54   LAYER   1   ROW     4   COL     9   RATE   -100.0000    
 BOUNDARY     55   LAYER   1   ROW     4   COL    10   RATE   -100.0000    
 BOUNDARY     56   LAYER   1   ROW     4   COL    11   RATE   -100.0000    
 BOUNDARY     57   LAYER   1   ROW     4   COL    12   RATE    -66.8593    
 BOUNDARY     58   LAYER   1   ROW     4   COL    13   RATE    -6.59343    
 BOUNDARY     59   LAYER   1   ROW     4   COL    14   RATE     0.00000    
 BOUNDARY     60   LAYER   1   ROW     4   COL    15   RATE     0.00000    
 BOUNDARY     61   LAYER   1   ROW     5   COL     1   RATE     0.00000    
 BOUNDARY     62   LAYER   1   ROW     5   COL     2   RATE    -9.47503    
 BOUNDARY     63   LAYER   1   ROW     5   COL     3   RATE    -98.7428    
 BOUNDARY     64   LAYER   1   ROW     5   COL     4   RATE   -100.0000    
 BOUNDARY     65   LAYER   1   ROW     5   COL     5   RATE   -100.0000    
 BOUNDARY     66   LAYER   1   ROW     5   COL     6   RATE   -100.0000    
 BOUNDARY     67   LAYER   1   ROW     5   COL     7   RATE   -100.0000    
 BOUNDARY     68   LAYER   1   ROW     5   COL     8   RATE   -100.0000    
 BOUNDARY     69   LAYER   1   ROW     5   COL     9   RATE   -100.0000    
 BOUNDARY     70   LAYER   1   ROW     5   COL    10   RATE   -100.0000    
 BOUNDARY     71   LAYER   1   ROW     5   COL    11   RATE   -100.0000    
 BOUNDARY     72   LAYER   1   ROW     5   COL    12   RATE    -76.5456    
 BOUNDARY     73   LAYER   1   ROW     5   COL    13   RATE    -7.44688    
 BOUNDARY     74   LAYER   1   ROW     5   COL    14   RATE     0.00000    
 BOUNDARY     75   LAYER   1   ROW     5   COL    15   RATE     0.00000    
 BOUNDARY     76   LAYER   1   ROW     6   COL     1   RATE     0.00000    
 BOUNDARY     77   LAYER   1   ROW     6   COL     2   RATE    -7.90594    
 BOUNDARY     78   LAYER   1   ROW     6   COL     3   RATE   -100.0000    
 BOUNDARY     79   LAYER   1   ROW     6   COL     4   RATE   -100.0000    
 BOUNDARY     80   LAYER   1   ROW     6   COL     5   RATE   -100.0000    
 BOUNDARY     81   LAYER   1   ROW     6   COL     6   RATE   -100.0000    
 BOUNDARY     82   LAYER   1   ROW     6   COL     7   RATE   -100.0000    
 BOUNDARY     83   LAYER   1   ROW     6   COL     8   RATE   -100.0000    
 BOUNDARY     84   LAYER   1   ROW     6   COL     9   RATE   -100.0000    
 BOUNDARY     85   LAYER   1   ROW     6   COL    10   RATE   -100.0000    
 BOUNDARY     86   LAYER   1   ROW     6   COL    11   RATE   -100.0000    
 BOUNDARY     87   LAYER   1   ROW     6   COL    12   RATE    -80.1726    
 BOUNDARY     88   LAYER   1   ROW     6   COL    13   RATE    -7.40605    
 BOUNDARY     89   LAYER   1   ROW     6   COL    14   RATE     0.00000    
 BOUNDARY     90   LAYER   1   ROW     6   COL    15   RATE     0.00000    
 BOUNDARY     91   LAYER   1   ROW     7   COL     1   RATE     0.00000    
 BOUNDARY     92   LAYER   1   ROW     7   COL     2   RATE    -4.16227    
 BOUNDARY     93   LAYER   1   ROW     7   COL     3   RATE   -100.0000    
 BOUNDARY     94   LAYER   1   ROW     7   COL     4   RATE   -100.0000    
 BOUNDARY     95   LAYER   1   ROW     7   COL     5   RATE   -100.0000    
 BOUNDARY     96   LAYER   1   ROW     7   COL     6   RATE   -100.0000    
 BOUNDARY     97   LAYER   1   ROW     7   COL     7   RATE   -100.0000    
 BOUNDARY     98   LAYER   1   ROW     7   COL     8   RATE   -100.0000    
 BOUNDARY     99   LAYER   1   ROW     7   COL     9   RATE   -100.0000    
 BOUNDARY    100   LAYER   1   ROW     7   COL    10   RATE   -100.0000    
 BOUNDARY    101   LAYER   1   ROW     7   COL    11   RATE   -100.0000    
 BOUNDARY    102   LAYER   1   ROW     7   COL    12   RATE    -80.1847    
 BOUNDARY    103   LAYER   1   ROW     7   COL    13   RATE    -6.73715    
 BOUNDARY    104   LAYER   1   ROW     7   COL    14   RATE     0.00000    
 BOUNDARY    105   LAYER   1   ROW     7   COL    15   RATE     0.00000    
 BOUNDARY    106   LAYER   1   ROW     8   COL     1   RATE    -1.31976    
 BOUNDARY    107   LAYER   1   ROW     8   COL     2   RATE    -23.4301    
 BOUNDARY    108   LAYER   1   ROW     8   COL     3   RATE   -100.0000    
 BOUNDARY    109   LAYER   1   ROW     8   COL     4   RATE   -100.0000    
 BOUNDARY    110   LAYER   1   ROW     8   COL     5   RATE   -100.0000    
 BOUNDARY    111   LAYER   1   ROW     8   COL     6   RATE   -100.0000    
 BOUNDARY    112   LAYER   1   ROW     8   COL     7   RATE   -100.0000    
 BOUNDARY    113   LAYER   1   ROW     8   COL     8   RATE   -100.0000    
 BOUNDARY    114   LAYER   1   ROW     8   COL     9   RATE   -100.0000    
 BOUNDARY    115   LAYER   1   ROW     8   COL    10   RATE   -100.0000    
 BOUNDARY    116   LAYER   1   ROW     8   COL    11   RATE   -100.0000    
 BOUNDARY    117   LAYER   1   ROW     8   COL    12   RATE    -83.2240    
 BOUNDARY    118   LAYER   1   ROW     8   COL    13   RATE    -6.81930    
 BOUNDARY    119   LAYER   1   ROW     8   COL    14   RATE     0.00000    
 BOUNDARY    120   LAYER   1   ROW     8   COL    15   RATE     0.00000    
 BOUNDARY    121   LAYER   1   ROW     9   COL     1   RATE    -36.0878    
 BOUNDARY    122   LAYER   1   ROW     9   COL     2   RATE   -100.0000    
 BOUNDARY    123   LAYER   1   ROW     9   COL     3   RATE   -100.0000    
 BOUNDARY    124   LAYER   1   ROW     9   COL     4   RATE   -100.0000    
 BOUNDARY    125   LAYER   1   ROW     9   COL     5   RATE   -100.0000    
 BOUNDARY    126   LAYER   1   ROW     9   COL     6   RATE   -100.0000    
 BOUNDARY    127   LAYER   1   ROW     9   COL     7   RATE   -100.0000    
 BOUNDARY    128   LAYER   1   ROW     9   COL     8   RATE   -100.0000    
 BOUNDARY    129   LAYER   1   ROW     9   COL     9   RATE   -100.0000    
 BOUNDARY    130   LAYER   1   ROW     9   COL    10   RATE   -100.0000    
 BOUNDARY    131   LAYER   1   ROW     9   COL    11   RATE   -100.0000    
 BOUNDARY    132   LAYER   1   ROW     9   COL    12   RATE    -89.8226    
 BOUNDARY    133   LAYER   1   ROW     9   COL    13   RATE    -7.71192    
 BOUNDARY    134   LAYER   1   ROW     9   COL    14   RATE     0.00000    
 BOUNDARY    135   LAYER   1   ROW     9   COL    15   RATE     0.00000    
 BOUNDARY    136   LAYER   1   ROW    10   COL     1   RATE   -100.0000    
 BOUNDARY    137   LAYER   1   ROW    10   COL     2   RATE   -100.0000    
 BOUNDARY    138   LAYER   1   ROW    10   COL     3   RATE   -100.0000    
 BOUNDARY    139   LAYER   1   ROW    10   COL     4   RATE   -100.0000    
 BOUNDARY    140   LAYER   1   ROW    10   COL     5   RATE   -100.0000    
 BOUNDARY    141   LAYER   1   ROW    10   COL     6   RATE   -100.0000    
 BOUNDARY    142   LAYER   1   ROW    10   COL     7   RATE   -100.0000    
 BOUNDARY    143   LAYER   1   ROW    10   COL     8   RATE   -100.0000    
 BOUNDARY    144   LAYER   1   ROW    10   COL     9   RATE   -100.0000    
 BOUNDARY    145   LAYER   1   ROW    10   COL    10   RATE   -100.0000    
 BOUNDARY    146   LAYER   1   ROW    10   COL    11   RATE   -100.0000    
 BOUNDARY    147   LAYER   1   ROW    10   COL    12   RATE    -94.4817    
 BOUNDARY    148   LAYER   1   ROW    10   COL    13   RATE    -8.28094    
 BOUNDARY    149   LAYER   1   ROW    10   COL    14   RATE     0.00000    
 BOUNDARY    150   LAYER   1   ROW    10   COL    15   RATE     0.00000    
1
  HEAD             IN LAYER   1 AT END OF TIME STEP  31 IN STRESS PERIOD    8
  ---------------------------------------------------------------------------

           1       2       3       4       5       6       7       8       9      10      11      12      13      14      15
 ...........................................................................................................................
   1   132.83  136.37  140.52  144.18  146.95  148.75  149.57  149.42  148.28  146.09  142.73  137.99  131.24  121.37  105.84
   2   127.24  133.98  139.66  143.90  146.88  148.75  149.59  149.46  148.35  146.18  142.88  138.24  131.72  122.26  106.95
   3   110.16  130.36  138.73  143.66  146.86  148.80  149.65  149.54  148.47  146.35  143.12  138.66  132.59  124.37  113.73
   4   125.89  133.18  139.34  143.87  147.02  148.93  149.72  149.63  148.62  146.55  143.39  139.05  133.30  125.60  115.18
   5   129.84  134.74  139.96  144.23  147.28  149.10  149.81  149.72  148.78  146.75  143.62  139.33  133.72  126.42  117.42
   6   126.59  133.95  140.08  144.56  147.59  149.30  149.89  149.80  148.93  146.93  143.77  139.43  133.70  126.10  116.77
   7   111.75  132.08  140.31  145.06  147.98  149.50  149.95  149.86  149.06  147.08  143.89  139.43  133.37  124.56  110.12
   8   130.66  137.01  142.25  146.04  148.50  149.70  150.00  149.91  149.17  147.21  144.01  139.52  133.41  124.52  109.97
   9   138.17  140.89  144.17  147.02  148.99  149.86  150.04  149.94  149.24  147.31  144.13  139.71  133.86  125.94  115.72
  10   141.10  142.81  145.25  147.60  149.26  149.94  150.07  149.95  149.27  147.37  144.21  139.84  134.14  126.56  116.61
1
  HEAD             IN LAYER   2 AT END OF TIME STEP  31 IN STRESS PERIOD    8
  ---------------------------------------------------------------------------

           1       2       3       4       5       6       7       8       9      10      11      12      13      14      15
 ...........................................................................................................................
   1   133.83  136.19  139.47  142.65  145.22  146.95  147.73  147.55  146.36  144.11  140.76  136.26  130.64  124.29  118.75
   2   131.95  135.14  139.00  142.48  145.18  146.95  147.76  147.59  146.42  144.20  140.90  136.49  131.03  124.93  119.63
   3   129.22  133.96  138.56  142.35  145.17  147.00  147.82  147.67  146.53  144.36  141.14  136.87  131.69  126.08  121.53
   4   131.25  134.68  138.82  142.50  145.30  147.11  147.92  147.78  146.67  144.55  141.40  137.26  132.29  127.00  122.76
   5   132.51  135.42  139.26  142.80  145.53  147.28  148.06  147.90  146.82  144.72  141.61  137.53  132.67  127.54  123.53
   6   132.15  135.55  139.61  143.17  145.83  147.50  148.20  148.03  146.96  144.88  141.77  137.67  132.75  127.50  123.32
   7   131.15  135.79  140.18  143.70  146.23  147.75  148.36  148.15  147.08  145.01  141.88  137.73  132.66  127.05  122.17
   8   135.20  138.10  141.52  144.51  146.72  148.03  148.51  148.26  147.19  145.12  141.99  137.83  132.73  127.08  122.16
   9   138.58  140.39  142.90  145.32  147.17  148.27  148.64  148.34  147.26  145.20  142.10  137.98  133.00  127.64  123.29
  10   140.34  141.68  143.73  145.81  147.44  148.40  148.71  148.39  147.31  145.25  142.16  138.08  133.19  128.00  123.85

 HEAD WILL BE SAVED ON UNIT 1017 AT END OF TIME STEP   31, STRESS PERIOD    8
1
  VOLUME BUDGET FOR ENTIRE MODEL AT END OF TIME STEP   31, STRESS PERIOD   8
  ------------------------------------------------------------------------------

     CUMULATIVE VOLUME      L**3       RATES FOR THIS TIME STEP      L**3/T
     ------------------                 ------------------------

           IN:                                      IN:
           ---                                      ---
             STORAGE =     1883332.6952               STORAGE =       42098.1816
    WELLS NEAR RIVER =           0.0000      WELLS NEAR RIVER =           0.0000
               RIVER =           0.0000                 RIVER =           0.0000
           GHB LAKES =           0.0000             GHB LAKES =           0.0000
            RECHARGE =    36874739.5833              RECHARGE =       37500.0000
             ET SEGS =           0.0000               ET SEGS =           0.0000

            TOTAL IN =    38758072.2785              TOTAL IN =       79598.1816

          OUT:                                     OUT:
          ----                                     ----
             STORAGE =     9064636.0387               STORAGE =           0.0000
    WELLS NEAR RIVER =        5570.0000      WELLS NEAR RIVER =           0.0000
               RIVER =    14736839.7150                 RIVER =       38315.3837
           GHB LAKES =    11378074.6529             GHB LAKES =       31186.4575
            RECHARGE =           0.0000              RECHARGE =           0.0000
             ET SEGS =     3572951.8911               ET SEGS =       10096.3404

           TOTAL OUT =    38758072.2978             TOTAL OUT =       79598.1816

            IN - OUT =      -1.9225E-02              IN - OUT =       1.3515E-05

 PERCENT DISCREPANCY =          -0.00     PERCENT DISCREPANCY =           0.00






         TIME SUMMARY AT END OF TIME STEP   31 IN STRESS PERIOD    8
                    SECONDS     MINUTES      HOURS       DAYS        YEARS
                    -----------------------------------------------------------
   TIME STEP LENGTH  86400.      1440.0      24.000     1.00000     2.73785E-03
 STRESS PERIOD TIME 2.67840E+06  44640.      744.00      31.000     8.48734E-02
         TOTAL TIME 3.16224E+07 5.27040E+05  8784.0      366.00      1.0021    
