                                  MODFLOW-2015     
      U.S. GEOLOGICAL SURVEY MODULAR FINITE-DIFFERENCE GROUND-WATER FLOW MODEL
                            VERSION GWF 3 11/10/2014

 LIST FILE: bcf2ss.lst
                         UNIT 1004

 OPENING bcf2ss.ic
 FILE TYPE:IC8   UNIT 1005   STATUS:OLD    
 FORMAT:FORMATTED              ACCESS:SEQUENTIAL          

 OPENING bcf2ss.npf
 FILE TYPE:NPF8   UNIT 1006   STATUS:OLD    
 FORMAT:FORMATTED              ACCESS:SEQUENTIAL          

 OPENING bcf2ss.wel
 FILE TYPE:WEL8   UNIT 1007   STATUS:OLD    
 FORMAT:FORMATTED              ACCESS:SEQUENTIAL          

 OPENING bcf2ss.riv
 FILE TYPE:RIV8   UNIT 1008   STATUS:OLD    
 FORMAT:FORMATTED              ACCESS:SEQUENTIAL          

 OPENING bcf2ss.rch
 FILE TYPE:RCH8   UNIT 1009   STATUS:OLD    
 FORMAT:FORMATTED              ACCESS:SEQUENTIAL          

 OPENING bcf2ss.oc
 FILE TYPE:OC8   UNIT 1010   STATUS:OLD    
 FORMAT:FORMATTED              ACCESS:SEQUENTIAL          

 OPENING bcf2ss.dis
 FILE TYPE:DIS8   UNIT 1011   STATUS:OLD    
 FORMAT:FORMATTED              ACCESS:SEQUENTIAL          

 OPENING bcf2ss.ghb
 FILE TYPE:GHB8   UNIT 1012   STATUS:OLD    
 FORMAT:FORMATTED              ACCESS:SEQUENTIAL          

 OPENING bcf2ss_struct.obs
 FILE TYPE:OBS8   UNIT 1013   STATUS:OLD    
 FORMAT:FORMATTED              ACCESS:SEQUENTIAL          
#OBS8  bcf2ss_unstruct.obs   OLD                                                                                                                                                                                                                                                                            

 OPENING bcf2ss.cbc
 FILE TYPE:DATA(BINARY)   UNIT 1014   STATUS:REPLACE
 FORMAT:UNFORMATTED            ACCESS:STREAM              
#DATA(BINARY) bcf2ss.hds    REPLACE                                                                                                                                                                                                                                                                         

 OPENING bcf2ss.hds
 FILE TYPE:DATA   UNIT 1015   STATUS:REPLACE
 FORMAT:FORMATTED              ACCESS:SEQUENTIAL          

 OPENING ibound.out
 FILE TYPE:DATA   UNIT 1016   STATUS:REPLACE
 FORMAT:FORMATTED              ACCESS:SEQUENTIAL          
#                                                                                                                                                                                                                                                                                                           
# Output: single observations                                                                                                                                                                                                                                                                               

 OPENING head_obs.csv
 FILE TYPE:DATA   UNIT 1017   STATUS:REPLACE
 FORMAT:FORMATTED              ACCESS:SEQUENTIAL          

 OPENING riv_obs.csv
 FILE TYPE:DATA   UNIT 1018   STATUS:REPLACE
 FORMAT:FORMATTED              ACCESS:SEQUENTIAL          

 OPENING ghb_obs.csv
 FILE TYPE:DATA   UNIT 1019   STATUS:REPLACE
 FORMAT:FORMATTED              ACCESS:SEQUENTIAL          
#DATA(BINARY) head_obs.bsv  REPLACE                                                                                                                                                                                                                                                                         
#DATA(BINARY) riv_obs.bsv   REPLACE                                                                                                                                                                                                                                                                         
#DATA(BINARY) ghb_obs.csv   REPLACE                                                                                                                                                                                                                                                                         
#                                                                                                                                                                                                                                                                                                           
# Output: continuous observations                                                                                                                                                                                                                                                                           

 OPENING ghb_flows.csv
 FILE TYPE:DATA   UNIT 1020   STATUS:REPLACE
 FORMAT:FORMATTED              ACCESS:SEQUENTIAL          

 OPENING head_hydrographs.csv
 FILE TYPE:DATA   UNIT 1021   STATUS:REPLACE
 FORMAT:FORMATTED              ACCESS:SEQUENTIAL          

 OPENING riv_flows.csv
 FILE TYPE:DATA   UNIT 1022   STATUS:REPLACE
 FORMAT:FORMATTED              ACCESS:SEQUENTIAL          

 OPENING intercell_flow_obs1.csv
 FILE TYPE:DATA   UNIT 1023   STATUS:REPLACE
 FORMAT:FORMATTED              ACCESS:SEQUENTIAL          

 OPENING intercell_flow_obs2.csv
 FILE TYPE:DATA   UNIT 1024   STATUS:REPLACE
 FORMAT:FORMATTED              ACCESS:SEQUENTIAL          

 OPENING intercell_flows.csv
 FILE TYPE:DATA   UNIT 1025   STATUS:REPLACE
 FORMAT:FORMATTED              ACCESS:SEQUENTIAL          
#DATA(BINARY) ghb_flows.bsv            REPLACE                                                                                                                                                                                                                                                              
#DATA(BINARY) head_hydrographs.bsv     REPLACE                                                                                                                                                                                                                                                              
#DATA(BINARY) riv_flows.bsv            REPLACE                                                                                                                                                                                                                                                              
#DATA(BINARY) intercell_flow_obs1.bsv  REPLACE                                                                                                                                                                                                                                                              
#DATA(BINARY) intercell_flow_obs2.bsv  REPLACE                                                                                                                                                                                                                                                              
#DATA(BINARY) intercell_flows.bsv      REPLACE                                                                                                                                                                                                                                                              

 DIS -- STRUCTURED GRID DISCRETIZATION PACKAGE, VERSION 2 : 3/27/2014 - INPUT READ FROM UNIT 1011


 PROCESSING DISCRETIZATION OPTIONS
 END OF DISCRETIZATION OPTIONS
 MODEL LENGTH UNIT IS UNDEFINED
 PROCESSING DISCRETIZATION DIMENSIONS
    NLAY =       2
    NROW =      10
    NCOL =      15
 END OF DISCRETIZATION DIMENSIONS
 PROCESSING DISDATA

                     DELR =   500.000    

                     DELC =   500.000    

 TOP ELEVATION OF LAYER 1 =   150.000    

   MODEL LAYER BOTTOM EL. =   50.0000     FOR LAYER   1

   MODEL LAYER BOTTOM EL. =  -50.0000     FOR LAYER   2



                            IDOMAIN FOR LAYER   1
 READING ON UNIT 1011 WITH FORMAT: (FREE)              

       1  2  3  4  5  6  7  8  9 10 11 12 13 14 15
 .................................................
   1   1  1  0  0  0  0  0  1  1  1  1  1  1  1  1
   2   1  1  1  0  0  0  1  1  1  1  1  1  1  1  1
   3   1  1  1  1  0  1  1  1  1  1  1  1  1  1  1
   4   1  1  1  1  1  1  1  1  1  1  1  1  1  1  1
   5   1  1  1  1  1  1  1  1  1  1  1  1  1  1  1
   6   1  1  1  1  1  1  1  1  1  1  1  1  1  1  1
   7   1  1  1  1  1  1  1  1  1  1  1  1  1  1  1
   8   1  1  1  1  1  1  1  1  1  1  1  1  1  1  1
   9   1  1  1  1  1  1  1  1  1  1  1  1  1  1  1
  10   1  1  1  1  1  1  1  1  1  1  1  1  1  1  1



                            IDOMAIN FOR LAYER   2
 READING ON UNIT 1011 WITH FORMAT: (FREE)              

       1  2  3  4  5  6  7  8  9 10 11 12 13 14 15
 .................................................
   1   1  1  0  0  0  0  0  1  1  1  1  1  1  1  1
   2   1  1  1  0  0  0  1  1  1  1  1  1  1  1  1
   3   1  1  1  1  0  1  1  1  1  1  1  1  1  1  1
   4   1  1  1  1  1  1  1  1  1  1  1  1  1  1  1
   5   1  1  1  1  1  1  1  1  1  1  1  1  1  1  1
   6   1  1  1  1  1  1  1  1  1  1  1  1  1  1  1
   7   1  1  1  1  1  1  1  1  1  1  1  1  1  1  1
   8   1  1  1  1  1  1  1  1  1  1  1  1  1  1  1
   9   1  1  1  1  1  1  1  1  1  1  1  1  1  1  1
  10   1  1  1  1  1  1  1  1  1  1  1  1  1  1  1
 END PROCESSING DISDATA

 THE SPECIFIED IDOMAIN RESULTS IN A REDUCED NUMBER OF CELLS.
 NUMBER OF USER NODES:     300
 NUMBER OF NODES IN SOLUTION:     282



 IC -- INITIAL CONDITIONS PACKAGE, VERSION 8, 3/28/2015 INPUT READ FROM UNIT 1005
 #Valley aquifer with 2 sand layers separated by silt.  Stress period 1 is natur
 # conditions.  Stress period 2 adds wells.
 PROCESSING IC OPTIONS
 END OF IC OPTIONS
 PROCESSING ICDATA

             INITIAL HEAD =   0.00000     FOR LAYER   1

             INITIAL HEAD =   0.00000     FOR LAYER   2
 END PROCESSING ICDATA

 NPF -- NODE PROPERTY FLOW PACKAGE, VERSION 1, 3/30/2015 INPUT READ FROM UNIT 1006


 PROCESSING NPF OPTIONS
    CELL-BY-CELL FLOW INFORMATION WILL BE SAVED TO BINARY FILE WHENEVER ICBCFL IS NOT ZERO.
 #  VFC  (turn on vertical flow correction).  Default is off?
    VERTICAL CONDUCTANCE IS CONSTANT.
 #  CVCORRECTION (default is off)
    REWETTING IS ACTIVE.
    IWETIT HAS BEEN SET TO:     1
    WETTING FACTOR HAS BEEN SET TO:    1.000000    
    IHDWET HAS BEEN SET TO:     0
    THE VALUE FOR HDRY HAS BEEN SET TO:     777.770    
    THE VALUE FOR HNOFLO HAS BEEN SET TO:    -999.000    
 #  funkyunsupportedoption
 END OF NPF OPTIONS
 #
 PROCESSING NPFDATA

                ICELLTYPE =              1 FOR LAYER   1

                ICELLTYPE =              0 FOR LAYER   2

                 ICELLAVG =         0



                             WETDRY FOR LAYER   1
 READING ON UNIT 1006 WITH FORMAT: (FREE)              

           1          2          3          4          5          6          7          8          9         10         11
          12         13         14         15
 .........................................................................................................................
   1    2.00       2.00       2.00       2.00       2.00       2.00       2.00       2.00      -2.00      -2.00      -2.00    
       -2.00      -2.00      -2.00      -2.00    
   2    2.00       2.00       2.00       2.00       2.00       2.00       2.00       2.00      -2.00      -2.00      -2.00    
       -2.00      -2.00      -2.00      -2.00    
   3    2.00       2.00       2.00      -2.00       2.00       2.00       2.00       2.00      -2.00      -2.00      -2.00    
       -2.00      -2.00      -2.00      -2.00    
   4    2.00       2.00       2.00       2.00       2.00       2.00       2.00       2.00      -2.00      -2.00      -2.00    
       -2.00      -2.00      -2.00      -2.00    
   5    2.00       2.00       2.00       2.00       2.00       2.00       2.00       2.00      -2.00      -2.00      -2.00    
       -2.00      -2.00      -2.00      -2.00    
   6    2.00       2.00       2.00       2.00       2.00       2.00       2.00       2.00      -2.00      -2.00      -2.00    
       -2.00      -2.00      -2.00      -2.00    
   7    2.00       2.00       2.00       2.00       2.00       2.00       2.00       2.00      -2.00      -2.00      -2.00    
       -2.00      -2.00      -2.00      -2.00    
   8    2.00       2.00       2.00      -2.00       2.00       2.00       2.00       2.00      -2.00      -2.00      -2.00    
       -2.00      -2.00      -2.00      -2.00    
   9    2.00       2.00       2.00       2.00       2.00       2.00       2.00       2.00      -2.00      -2.00      -2.00    
       -2.00      -2.00      -2.00      -2.00    
  10    2.00       2.00       2.00       2.00       2.00       2.00       2.00       2.00      -2.00      -2.00      -2.00    
       -2.00      -2.00      -2.00      -2.00    

                   WETDRY =   0.00000     FOR LAYER   2

                       HK =  10.00000     FOR LAYER   1

                       HK =   5.00000     FOR LAYER   2

                       VK =  1.000000E-01
 END PROCESSING NPFDATA

 CELL CONVERSIONS FOR ITER.=  0  STEP=  0  PERIOD=   0   (NODE or LRC)
     DRY             (1,1,1) DRY             (1,1,2) DRY             (1,1,8) DRY             (1,1,9) DRY            (1,1,10)
     DRY            (1,1,11) DRY            (1,1,12) DRY            (1,1,13) DRY            (1,1,14) DRY            (1,1,15)
     DRY             (1,2,1) DRY             (1,2,2) DRY             (1,2,3) DRY             (1,2,7) DRY             (1,2,8)
     DRY             (1,2,9) DRY            (1,2,10) DRY            (1,2,11) DRY            (1,2,12) DRY            (1,2,13)
     DRY            (1,2,14) DRY            (1,2,15) DRY             (1,3,1) DRY             (1,3,2) DRY             (1,3,3)
     DRY             (1,3,4) DRY             (1,3,6) DRY             (1,3,7) DRY             (1,3,8) DRY             (1,3,9)
     DRY            (1,3,10) DRY            (1,3,11) DRY            (1,3,12) DRY            (1,3,13) DRY            (1,3,14)
     DRY            (1,3,15) DRY             (1,4,1) DRY             (1,4,2) DRY             (1,4,3) DRY             (1,4,4)
     DRY             (1,4,5) DRY             (1,4,6) DRY             (1,4,7) DRY             (1,4,8) DRY             (1,4,9)
     DRY            (1,4,10) DRY            (1,4,11) DRY            (1,4,12) DRY            (1,4,13) DRY            (1,4,14)
     DRY            (1,4,15) DRY             (1,5,1) DRY             (1,5,2) DRY             (1,5,3) DRY             (1,5,4)
     DRY             (1,5,5) DRY             (1,5,6) DRY             (1,5,7) DRY             (1,5,8) DRY             (1,5,9)
     DRY            (1,5,10) DRY            (1,5,11) DRY            (1,5,12) DRY            (1,5,13) DRY            (1,5,14)
     DRY            (1,5,15) DRY             (1,6,1) DRY             (1,6,2) DRY             (1,6,3) DRY             (1,6,4)
     DRY             (1,6,5) DRY             (1,6,6) DRY             (1,6,7) DRY             (1,6,8) DRY             (1,6,9)
     DRY            (1,6,10) DRY            (1,6,11) DRY            (1,6,12) DRY            (1,6,13) DRY            (1,6,14)
     DRY            (1,6,15) DRY             (1,7,1) DRY             (1,7,2) DRY             (1,7,3) DRY             (1,7,4)
     DRY             (1,7,5) DRY             (1,7,6) DRY             (1,7,7) DRY             (1,7,8) DRY             (1,7,9)
     DRY            (1,7,10) DRY            (1,7,11) DRY            (1,7,12) DRY            (1,7,13) DRY            (1,7,14)
     DRY            (1,7,15) DRY             (1,8,1) DRY             (1,8,2) DRY             (1,8,3) DRY             (1,8,4)
     DRY             (1,8,5) DRY             (1,8,6) DRY             (1,8,7) DRY             (1,8,8) DRY             (1,8,9)
     DRY            (1,8,10) DRY            (1,8,11) DRY            (1,8,12) DRY            (1,8,13) DRY            (1,8,14)
     DRY            (1,8,15) DRY             (1,9,1) DRY             (1,9,2) DRY             (1,9,3) DRY             (1,9,4)
     DRY             (1,9,5) DRY             (1,9,6) DRY             (1,9,7) DRY             (1,9,8) DRY             (1,9,9)
     DRY            (1,9,10) DRY            (1,9,11) DRY            (1,9,12) DRY            (1,9,13) DRY            (1,9,14)
     DRY            (1,9,15) DRY            (1,10,1) DRY            (1,10,2) DRY            (1,10,3) DRY            (1,10,4)
     DRY            (1,10,5) DRY            (1,10,6) DRY            (1,10,7) DRY            (1,10,8) DRY            (1,10,9)
     DRY           (1,10,10) DRY           (1,10,11) DRY           (1,10,12) DRY           (1,10,13) DRY           (1,10,14)
     DRY           (1,10,15)

 OUTPUT CONTROL IS SPECIFIED ONLY AT TIME STEPS FOR WHICH OUTPUT IS DESIRED
 BINARY CELL-BY-CELL BUDGET INFORMATION WILL BE WRITTEN TO FILE:
 bcf2ss.cbc
 OPENED ON UNIT NUMBER:   1014
 HEAD             WILL BE SAVED WITH FORMAT: (15f7.2)            
 SAVED HEAD             WILL BE LABELED
 IBOUND           WILL BE SAVED WITH FORMAT: (15i2)              
 SAVED IBOUND           WILL BE LABELED
 HEAD PRINT FORMAT CODE IS   4
 DRAWDOWN PRINT FORMAT CODE IS   0
 IBOUND PRINT FORMAT CODE IS   0
 HEAD WILL BE SAVED ON UNIT 1015
 IBOUND WILL BE SAVED ON UNIT 1016

The Observation Process is active

Processing observation options:

Binary output precision set to: SINGLE
Text output number of digits of precision set to: 10
"Structured" option found. Cell locations for observations will be
read as: Layer Row Column.


 WEL   -- WELLS PACKAGE, VERSION 8, 2/22/2014 INPUT READ FROM UNIT 1007
 #option block.  Note -- no comments allowed on aux line

 PROCESSING WELLS OPTIONS
    AUXILIARY WELLS VARIABLE: VAR1            
    AUXILIARY WELLS VARIABLE: VAR2            
    AUXILIARY WELLS VARIABLE: VAR3            
    WELLS NEAR RIVER PACKAGE NAME: WELLS NEAR RIVER
    LISTS OF WELLS NEAR RIVER CELLS WILL BE PRINTED.
    WELLS NEAR RIVER FLOWS WILL BE PRINTED TO LISTING FILE.
    FLOWS WILL BE SAVED TO BUDGET FILE SPECIFIED IN OUTPUT CONTROL
 END OF WELLS NEAR RIVER OPTIONS

 PROCESSING WELLS NEAR RIVER DIMENSIONS
    MAXBOUND =       2
 END OF WELLS NEAR RIVER DIMENSIONS

 RIV   -- RIVER LEAKAGE PACKAGE, VERSION 8, 2/22/2014 INPUT READ FROM UNIT 1008
 #option block.  Note -- no comments allowed on aux line

 PROCESSING RIVER LEAKAGE OPTIONS
    RIVER PACKAGE NAME: RIVER           
    LISTS OF RIVER CELLS WILL BE PRINTED.
    RIVER FLOWS WILL BE PRINTED TO LISTING FILE.
    FLOWS WILL BE SAVED TO BUDGET FILE SPECIFIED IN OUTPUT CONTROL
    RIVER BOUNDARIES HAVE NAMES IN LAST COLUMN.
 END OF RIVER OPTIONS

 PROCESSING RIVER DIMENSIONS
    MAXBOUND =      10
 END OF RIVER DIMENSIONS

 GHB   -- HEAD DEP BOUNDS PACKAGE, VERSION 8, 2/22/2014 INPUT READ FROM UNIT 1012
 # Options block

 PROCESSING HEAD DEP BOUNDS OPTIONS
    GHB LAKES PACKAGE NAME: GHB LAKES       
    LISTS OF GHB LAKES CELLS WILL BE PRINTED.
    GHB LAKES FLOWS WILL BE PRINTED TO LISTING FILE.
    GHB LAKES BOUNDARIES HAVE NAMES IN LAST COLUMN.
 END OF GHB LAKES OPTIONS
 # Dimensions block

 PROCESSING GHB LAKES DIMENSIONS
    MAXBOUND =       3
 END OF GHB LAKES DIMENSIONS

 RCH   -- RECHARGE PACKAGE, VERSION 8, 2/22/2014 INPUT READ FROM UNIT 1009

 PROCESSING RECHARGE OPTIONS
    AUXILIARY RECHARGE VARIABLE: VAR1            
    AUXILIARY RECHARGE VARIABLE: VAR2            
    RECHARGE WILL BE APPLIED TO HIGHEST ACTIVE CELL.
 #  ECHO
 #  PRINT
    FLOWS WILL BE SAVED TO BUDGET FILE SPECIFIED IN OUTPUT CONTROL
    RECHARGE PACKAGE NAME: RECHARGE        
 END OF RECHARGE OPTIONS

 PROCESSING RECHARGE DIMENSIONS
    MAXBOUND =     150
 END OF RECHARGE DIMENSIONS

 REUSING WELS FROM LAST STRESS PERIOD
 #    layer       row       col    stage      cond       rbot  BoundName

 RIV NO.  LAYER   ROW    COL       STAGE         CONDUCTANCE  BOTTOM EL.      BOUNDARY NAME         
 ---------------------------------------------------------------------------------------------------
      1      2      1     15       0.000          0.1000E+05      -5.000                      
      2      2      2     15       0.000          0.1000E+05      -5.000      RIV2            
      3      2      3     15       0.000          0.1000E+05      -5.000      RIV3            
      4      2      4     15       0.000          0.1000E+05      -5.000                      
      5      2      5     15       0.000          0.1000E+05      -5.000                      
      6      2      6     15       0.000          0.1000E+05      -5.000                      
      7      2      7     15       0.000          0.1000E+05      -5.000      RIVX            
      8      2      8     15       0.000          0.1000E+05      -5.000      RIVX            
      9      2      9     15       0.000          0.1000E+05      -5.000      RIVX            
     10      2     10     15       0.000          0.1000E+05      -5.000                      
 # Stress-period block(s)

 GHB NO.  LAYER   ROW    COL       STAGE         CONDUCTANCE  BOUNDARY NAME         
 -----------------------------------------------------------------------------------
      1      1      3      1      100.00          0.1500E+05                  
      2      1      7      1       110.0          0.1400E+05  GHB2_UPPER      
      3      1      7      1       85.00           5000.      GHB2_LOWER      

      LAYER OR NODE INDEX =              1

                 RECHARGE =  4.000000E-03

 VAR1                     =  100.0000    

 CELL CONVERSIONS FOR ITER.=  2  STEP=  1  PERIOD=   1   (NODE or LRC)
     WET             (1,1,1) WET             (1,1,2) WET             (1,1,8) WET             (1,1,9) WET            (1,1,10)
     WET            (1,1,11) WET            (1,1,12) WET             (1,2,1) WET             (1,2,2) WET             (1,2,3)
     WET             (1,2,7) WET             (1,2,8) WET             (1,2,9) WET            (1,2,10) WET            (1,2,11)
     WET            (1,2,12) WET             (1,3,1) WET             (1,3,2) WET             (1,3,3) WET             (1,3,4)
     WET             (1,3,6) WET             (1,3,7) WET             (1,3,8) WET             (1,3,9) WET            (1,3,10)
     WET            (1,3,11) WET            (1,3,12) WET             (1,4,1) WET             (1,4,2) WET             (1,4,3)
     WET             (1,4,4) WET             (1,4,5) WET             (1,4,6) WET             (1,4,7) WET             (1,4,8)
     WET             (1,4,9) WET            (1,4,10) WET            (1,4,11) WET            (1,4,12) WET             (1,5,1)
     WET             (1,5,2) WET             (1,5,3) WET             (1,5,4) WET             (1,5,5) WET             (1,5,6)
     WET             (1,5,7) WET             (1,5,8) WET             (1,5,9) WET            (1,5,10) WET            (1,5,11)
     WET            (1,5,12) WET             (1,6,1) WET             (1,6,2) WET             (1,6,3) WET             (1,6,4)
     WET             (1,6,5) WET             (1,6,6) WET             (1,6,7) WET             (1,6,8) WET             (1,6,9)
     WET            (1,6,10) WET            (1,6,11) WET            (1,6,12) WET            (1,6,13) WET             (1,7,1)
     WET             (1,7,2) WET             (1,7,3) WET             (1,7,4) WET             (1,7,5) WET             (1,7,6)
     WET             (1,7,7) WET             (1,7,8) WET             (1,7,9) WET            (1,7,10) WET            (1,7,11)
     WET            (1,7,12) WET            (1,7,13) WET             (1,8,1) WET             (1,8,2) WET             (1,8,3)
     WET             (1,8,4) WET             (1,8,5) WET             (1,8,6) WET             (1,8,7) WET             (1,8,8)
     WET             (1,8,9) WET            (1,8,10) WET            (1,8,11) WET            (1,8,12) WET            (1,8,13)
     WET             (1,9,1) WET             (1,9,2) WET             (1,9,3) WET             (1,9,4) WET             (1,9,5)
     WET             (1,9,6) WET             (1,9,7) WET             (1,9,8) WET             (1,9,9) WET            (1,9,10)
     WET            (1,9,11) WET            (1,9,12) WET            (1,9,13) WET            (1,10,1) WET            (1,10,2)
     WET            (1,10,3) WET            (1,10,4) WET            (1,10,5) WET            (1,10,6) WET            (1,10,7)
     WET            (1,10,8) WET            (1,10,9) WET           (1,10,10) WET           (1,10,11) WET           (1,10,12)
     WET           (1,10,13)

 CELL CONVERSIONS FOR ITER.=  4  STEP=  1  PERIOD=   1   (NODE or LRC)
     DRY            (1,6,13)

 CELL CONVERSIONS FOR ITER.=  5  STEP=  1  PERIOD=   1   (NODE or LRC)
     DRY            (1,7,13) DRY            (1,8,13)

 CELL CONVERSIONS FOR ITER.=  6  STEP=  1  PERIOD=   1   (NODE or LRC)
     DRY            (1,9,13) DRY           (1,10,13)

 OUTPUT CONTROL FOR STRESS PERIOD    1   TIME STEP    1
    PRINT BUDGET
    PRINT HEAD
    PRINT HEAD FOR ALL LAYERS
    SAVE BUDGET
    SAVE HEAD
    SAVE HEAD FOR ALL LAYERS
    SAVE IBOUND
    SAVE IBOUND FOR ALL LAYERS
 UBDSV1 SAVING FLOW RIGHT FACE  ON UNIT   1014 AT TIME STEP      1, STRESS PERIOD      1
 UBDSV1 SAVING FLOW FRONT FACE  ON UNIT   1014 AT TIME STEP      1, STRESS PERIOD      1
 UBDSV1 SAVING FLOW LOWER FACE  ON UNIT   1014 AT TIME STEP      1, STRESS PERIOD      1
 UBDSV4 SAVING WELLS NEAR RIVER ON UNIT   1014 AT TIME STEP      1, STRESS PERIOD      1
 UBDSV4 SAVING RIVER            ON UNIT   1014 AT TIME STEP      1, STRESS PERIOD      1

 RIVER              PERIOD  1   STEP  1
 BOUNDARY      1   LAYER   2   ROW     1   COL    15   RATE    -11597.0    
 BOUNDARY      2   LAYER   2   ROW     2   COL    15   RATE    -11621.8      RIV2
 BOUNDARY      3   LAYER   2   ROW     3   COL    15   RATE    -11666.2      RIV3
 BOUNDARY      4   LAYER   2   ROW     4   COL    15   RATE    -11722.5    
 BOUNDARY      5   LAYER   2   ROW     5   COL    15   RATE    -11782.6    
 BOUNDARY      6   LAYER   2   ROW     6   COL    15   RATE    -11840.0    
 BOUNDARY      7   LAYER   2   ROW     7   COL    15   RATE    -11889.9      RIVX
 BOUNDARY      8   LAYER   2   ROW     8   COL    15   RATE    -11929.2      RIVX
 BOUNDARY      9   LAYER   2   ROW     9   COL    15   RATE    -11956.2      RIVX
 BOUNDARY     10   LAYER   2   ROW    10   COL    15   RATE    -11969.8    

 GHB LAKES          PERIOD  1   STEP  1
 BOUNDARY      1   LAYER   1   ROW     3   COL     1   RATE    -12707.5    
 BOUNDARY      2   LAYER   1   ROW     7   COL     1   RATE     84503.1      GHB2_UPPER
 BOUNDARY      3   LAYER   1   ROW     7   COL     1   RATE    -94820.3      GHB2_LOWER
 UBDSV4 SAVING RECHARGE         ON UNIT   1014 AT TIME STEP      1, STRESS PERIOD      1
1
  HEAD             IN LAYER   1 AT END OF TIME STEP   1 IN STRESS PERIOD    1
  ---------------------------------------------------------------------------

           1       2       3       4       5       6       7       8       9      10      11      12      13      14      15
 ...........................................................................................................................
   1   109.02  109.57 -999.00 -999.00 -999.00 -999.00 -999.00   90.59   87.59   82.59   75.98   68.92  777.77  777.77  777.77
   2   107.05  108.87  109.80 -999.00 -999.00 -999.00   95.89   92.63   88.55   83.13   76.33   69.20  777.77  777.77  777.77
   3   100.85  107.59  109.54  109.90 -999.00  101.32   98.15   94.35   89.70   83.90   76.89   69.69  777.77  777.77  777.77
   4   106.92  108.79  109.64  109.22  107.06  103.50   99.90   95.75   90.76   84.70   77.53   70.27  777.77  777.77  777.77
   5   108.68  109.53  109.88  109.25  107.44  104.58  101.06   96.80   91.65   85.43   78.14   70.85  777.77  777.77  777.77
   6   108.05  109.52  110.06  109.49  107.86  105.27  101.85   97.58   92.35   86.04   78.68   71.38  777.77  777.77  777.77
   7   103.96  109.07  110.26  109.82  108.27  105.79  102.42   98.15   92.88   86.53   79.13   71.83  777.77  777.77  777.77
   8   109.44  110.65  110.95  110.27  108.66  106.19  102.83   98.55   93.27   86.89   79.46   72.17  777.77  777.77  777.77
   9   111.69  111.86  111.60  110.67  108.97  106.47  103.10   98.82   93.52   87.12   79.69   72.39  777.77  777.77  777.77
  10   112.57  112.45  111.96  110.90  109.14  106.61  103.24   98.95   93.64   87.24   79.80   72.51  777.77  777.77  777.77
1
  HEAD             IN LAYER   2 AT END OF TIME STEP   1 IN STRESS PERIOD    1
  ---------------------------------------------------------------------------

           1       2       3       4       5       6       7       8       9      10      11      12      13      14      15
 ...........................................................................................................................
   1   108.26  108.51 -999.00 -999.00 -999.00 -999.00 -999.00   87.86   84.45   78.55   70.14   58.52   41.49   22.35    1.16
   2   107.64  108.23  108.62 -999.00 -999.00 -999.00   93.41   89.90   85.36   79.04   70.44   58.72   41.60   22.40    1.16
   3   106.71  107.84  108.42  108.35 -999.00   99.05   95.69   91.60   86.46   79.75   70.93   59.06   41.80   22.50    1.17
   4   107.57  108.13  108.29  107.52  105.09  101.28   97.46   93.00   87.49   80.51   71.50   59.48   42.05   22.62    1.17
   5   108.20  108.49  108.41  107.51  105.48  102.40   98.65   94.06   88.36   81.21   72.05   59.90   42.32   22.74    1.18
   6   108.31  108.68  108.62  107.76  105.92  103.13   99.47   94.84   89.06   81.80   72.54   60.29   42.56   22.86    1.18
   7   108.18  108.89  108.93  108.10  106.34  103.66  100.05   95.42   89.60   82.27   72.94   60.62   42.77   22.97    1.19
   8   109.45  109.68  109.45  108.51  106.73  104.07  100.47   95.83   89.98   82.62   73.25   60.88   42.94   23.05    1.19
   9   110.51  110.42  109.95  108.86  107.03  104.35  100.75   96.10   90.23   82.85   73.46   61.05   43.05   23.11    1.20
  10   111.05  110.84  110.24  109.07  107.19  104.49  100.88   96.23   90.36   82.97   73.56   61.13   43.11   23.14    1.20

 HEAD WILL BE SAVED ON UNIT 1015 AT END OF TIME STEP    1, STRESS PERIOD    1

 IBOUND WILL BE SAVED ON UNIT 1016 AT END OF TIME STEP    1, STRESS PERIOD    1
1
  VOLUME BUDGET FOR ENTIRE MODEL AT END OF TIME STEP    1, STRESS PERIOD   1
  ------------------------------------------------------------------------------

     CUMULATIVE VOLUME      L**3       RATES FOR THIS TIME STEP      L**3/T
     ------------------                 ------------------------

           IN:                                      IN:
           ---                                      ---
    WELLS NEAR RIVER =           0.0000      WELLS NEAR RIVER =           0.0000
               RIVER =           0.0000                 RIVER =           0.0000
           GHB LAKES =       84503.1150             GHB LAKES =       84503.1150
            RECHARGE =      141000.0000              RECHARGE =      141000.0000

            TOTAL IN =      225503.1150              TOTAL IN =      225503.1150

          OUT:                                     OUT:
          ----                                     ----
    WELLS NEAR RIVER =           0.0000      WELLS NEAR RIVER =           0.0000
               RIVER =      117975.3121                 RIVER =      117975.3121
           GHB LAKES =      107527.8041             GHB LAKES =      107527.8041
            RECHARGE =           0.0000              RECHARGE =           0.0000

           TOTAL OUT =      225503.1163             TOTAL OUT =      225503.1163

            IN - OUT =      -1.2573E-03              IN - OUT =      -1.2573E-03

 PERCENT DISCREPANCY =          -0.00     PERCENT DISCREPANCY =          -0.00






         TIME SUMMARY AT END OF TIME STEP    1 IN STRESS PERIOD    1
                    SECONDS     MINUTES      HOURS       DAYS        YEARS
                    -----------------------------------------------------------
   TIME STEP LENGTH  86400.      1440.0      24.000     1.00000     2.73785E-03
 STRESS PERIOD TIME  86400.      1440.0      24.000     1.00000     2.73785E-03
         TOTAL TIME  86400.      1440.0      24.000     1.00000     2.73785E-03
 #        k         i         j      flux     var1 var2 var3

 WEL NO.   NODE   STRESS RATE         VAR1            VAR2            VAR3            
 -------------------------------------------------------------------------------------
      1      2      3      4     -0.3500E+05      1.0000           2.000           3.000    
      2      2      8      4     -0.3500E+05       4.000           5.000           6.000    

 REUSING RIVS FROM LAST STRESS PERIOD

 REUSING GHBS FROM LAST STRESS PERIOD

 REUSING RCHS FROM LAST STRESS PERIOD

 CELL CONVERSIONS FOR ITER.=  7  STEP=  1  PERIOD=   2   (NODE or LRC)
     DRY            (1,1,12)

 CELL CONVERSIONS FOR ITER.=  8  STEP=  1  PERIOD=   2   (NODE or LRC)
     DRY            (1,2,12)

 CELL CONVERSIONS FOR ITER.= 11  STEP=  1  PERIOD=   2   (NODE or LRC)
     DRY            (1,3,12)

 CELL CONVERSIONS FOR ITER.= 85  STEP=  1  PERIOD=   2   (NODE or LRC)
     DRY            (1,4,12)

 OUTPUT CONTROL FOR STRESS PERIOD    2   TIME STEP    1
    PRINT BUDGET
    PRINT HEAD
    PRINT HEAD FOR ALL LAYERS
    SAVE BUDGET
    SAVE HEAD
    SAVE HEAD FOR ALL LAYERS
    SAVE IBOUND
    SAVE IBOUND FOR ALL LAYERS
 UBDSV1 SAVING FLOW RIGHT FACE  ON UNIT   1014 AT TIME STEP      1, STRESS PERIOD      2
 UBDSV1 SAVING FLOW FRONT FACE  ON UNIT   1014 AT TIME STEP      1, STRESS PERIOD      2
 UBDSV1 SAVING FLOW LOWER FACE  ON UNIT   1014 AT TIME STEP      1, STRESS PERIOD      2
 UBDSV4 SAVING WELLS NEAR RIVER ON UNIT   1014 AT TIME STEP      1, STRESS PERIOD      2

 WELLS NEAR RIVER   PERIOD  2   STEP  1
 BOUNDARY      1   LAYER   2   ROW     3   COL     4   RATE    -35000.0    
 BOUNDARY      2   LAYER   2   ROW     8   COL     4   RATE    -35000.0    
 UBDSV4 SAVING RIVER            ON UNIT   1014 AT TIME STEP      1, STRESS PERIOD      2

 RIVER              PERIOD  2   STEP  1
 BOUNDARY      1   LAYER   2   ROW     1   COL    15   RATE    -9442.25    
 BOUNDARY      2   LAYER   2   ROW     2   COL    15   RATE    -9453.00      RIV2
 BOUNDARY      3   LAYER   2   ROW     3   COL    15   RATE    -9473.68      RIV3
 BOUNDARY      4   LAYER   2   ROW     4   COL    15   RATE    -9503.15    
 BOUNDARY      5   LAYER   2   ROW     5   COL    15   RATE    -9538.33    
 BOUNDARY      6   LAYER   2   ROW     6   COL    15   RATE    -9569.42    
 BOUNDARY      7   LAYER   2   ROW     7   COL    15   RATE    -9593.50      RIVX
 BOUNDARY      8   LAYER   2   ROW     8   COL    15   RATE    -9610.71      RIVX
 BOUNDARY      9   LAYER   2   ROW     9   COL    15   RATE    -9621.79      RIVX
 BOUNDARY     10   LAYER   2   ROW    10   COL    15   RATE    -9627.23    

 GHB LAKES          PERIOD  2   STEP  1
 BOUNDARY      1   LAYER   1   ROW     3   COL     1   RATE     10342.2    
 BOUNDARY      2   LAYER   1   ROW     7   COL     1   RATE     102488.      GHB2_UPPER
 BOUNDARY      3   LAYER   1   ROW     7   COL     1   RATE    -88397.2      GHB2_LOWER
 UBDSV4 SAVING RECHARGE         ON UNIT   1014 AT TIME STEP      1, STRESS PERIOD      2
1
  HEAD             IN LAYER   1 AT END OF TIME STEP   1 IN STRESS PERIOD    2
  ---------------------------------------------------------------------------

           1       2       3       4       5       6       7       8       9      10      11      12      13      14      15
 ...........................................................................................................................
   1    93.61   92.46 -999.00 -999.00 -999.00 -999.00 -999.00   73.87   71.64   67.78   63.13  777.77  777.77  777.77  777.77
   2    94.52   90.94   86.27 -999.00 -999.00 -999.00   76.96   74.97   72.10   68.02   63.28  777.77  777.77  777.77  777.77
   3    99.31   90.51   82.20   67.75 -999.00   79.04   77.77   75.66   72.55   68.30   63.47  777.77  777.77  777.77  777.77
   4    93.80   89.44   83.57   77.65   79.05   79.24   78.21   76.11   72.89   68.52   63.55  777.77  777.77  777.77  777.77
   5    93.03   89.85   85.45   81.57   80.48   79.84   78.60   76.42   73.13   68.63   63.12   51.54  777.77  777.77  777.77
   6    95.53   91.20   86.52   82.69   81.04   80.11   78.80   76.61   73.29   68.73   63.02   51.93  777.77  777.77  777.77
   7   102.68   92.74   86.39   81.60   80.38   79.89   78.80   76.69   73.39   68.80   63.00   52.20  777.77  777.77  777.77
   8    94.81   90.36   84.85   78.76   79.30   79.61   78.78   76.75   73.47   68.87   63.01   52.39  777.77  777.77  777.77
   9    91.54   89.06   85.27   81.46   80.56   80.11   79.01   76.88   73.55   68.92   63.03   52.50  777.77  777.77  777.77
  10    90.42   88.67   85.84   83.03   81.58   80.61   79.23   76.98   73.61   68.96   63.05   52.56  777.77  777.77  777.77
1
  HEAD             IN LAYER   2 AT END OF TIME STEP   1 IN STRESS PERIOD    2
  ---------------------------------------------------------------------------

           1       2       3       4       5       6       7       8       9      10      11      12      13      14      15
 ...........................................................................................................................
   1    90.01   88.99 -999.00 -999.00 -999.00 -999.00 -999.00   70.84   68.21   63.42   56.24   45.50   32.69   17.83    0.94
   2    89.23   86.23   80.62 -999.00 -999.00 -999.00   74.15   71.95   68.65   63.63   56.36   45.58   32.73   17.85    0.95
   3    88.80   83.74   72.18   41.96 -999.00   76.26   74.96   72.65   69.09   63.90   56.54   45.71   32.82   17.89    0.95
   4    88.17   84.38   77.40   68.84   74.71   76.18   75.35   73.09   69.43   64.14   56.71   45.90   32.95   17.96    0.95
   5    88.52   85.66   81.10   76.90   76.95   76.87   75.75   73.40   69.68   64.32   56.84   46.24   33.12   18.03    0.95
   6    89.47   86.56   82.27   78.37   77.54   77.12   75.94   73.59   69.85   64.45   56.95   46.44   33.25   18.10    0.96
   7    90.30   86.51   80.91   74.63   75.95   76.64   75.87   73.66   69.95   64.55   57.04   46.58   33.35   18.15    0.96
   8    88.74   85.14   77.51   59.79   72.79   75.98   75.79   73.71   70.03   64.63   57.12   46.68   33.42   18.18    0.96
   9    87.74   85.21   80.53   74.74   76.20   76.88   76.09   73.85   70.12   64.69   57.17   46.74   33.46   18.21    0.96
  10    87.37   85.49   82.29   79.07   78.20   77.65   76.38   73.97   70.18   64.73   57.20   46.77   33.48   18.22    0.96

 HEAD WILL BE SAVED ON UNIT 1015 AT END OF TIME STEP    1, STRESS PERIOD    2

 IBOUND WILL BE SAVED ON UNIT 1016 AT END OF TIME STEP    1, STRESS PERIOD    2
1
  VOLUME BUDGET FOR ENTIRE MODEL AT END OF TIME STEP    1, STRESS PERIOD   2
  ------------------------------------------------------------------------------

     CUMULATIVE VOLUME      L**3       RATES FOR THIS TIME STEP      L**3/T
     ------------------                 ------------------------

           IN:                                      IN:
           ---                                      ---
    WELLS NEAR RIVER =           0.0000      WELLS NEAR RIVER =           0.0000
               RIVER =           0.0000                 RIVER =           0.0000
           GHB LAKES =      197333.3229             GHB LAKES =      112830.2079
            RECHARGE =      282000.0000              RECHARGE =      141000.0000

            TOTAL IN =      479333.3229              TOTAL IN =      253830.2079

          OUT:                                     OUT:
          ----                                     ----
    WELLS NEAR RIVER =       70000.0000      WELLS NEAR RIVER =       70000.0000
               RIVER =      213408.3664                 RIVER =       95433.0543
           GHB LAKES =      195924.9600             GHB LAKES =       88397.1559
            RECHARGE =           0.0000              RECHARGE =           0.0000

           TOTAL OUT =      479333.3264             TOTAL OUT =      253830.2102

            IN - OUT =      -3.4853E-03              IN - OUT =      -2.2281E-03

 PERCENT DISCREPANCY =          -0.00     PERCENT DISCREPANCY =          -0.00






         TIME SUMMARY AT END OF TIME STEP    1 IN STRESS PERIOD    2
                    SECONDS     MINUTES      HOURS       DAYS        YEARS
                    -----------------------------------------------------------
   TIME STEP LENGTH  86400.      1440.0      24.000     1.00000     2.73785E-03
 STRESS PERIOD TIME  86400.      1440.0      24.000     1.00000     2.73785E-03
         TOTAL TIME 1.72800E+05  2880.0      48.000      2.0000     5.47570E-03
