                                  MODFLOW-2015
             U.S. GEOLOGICAL SURVEY MODULAR FINITE-DIFFERENCE MODEL
                          GROUNDWATER FLOW MODEL (GWF)
                             VERSION GWF 01/31/2015

 OPENED test4_ets_list.ic
 FILE TYPE:IC8                    UNIT 1005   STATUS:OLD                 
 FORMAT:FORMATTED              ACCESS:SEQUENTIAL          
 ACTION:READ                


 OPENED test4_ets_list.npf
 FILE TYPE:NPF8                   UNIT 1006   STATUS:OLD                 
 FORMAT:FORMATTED              ACCESS:SEQUENTIAL          
 ACTION:READ                


 OPENED test4_ets_list.wel
 FILE TYPE:WEL8                   UNIT 1007   STATUS:OLD                 
 FORMAT:FORMATTED              ACCESS:SEQUENTIAL          
 ACTION:READ                


 OPENED test4_ets_list.riv
 FILE TYPE:RIV8                   UNIT 1008   STATUS:OLD                 
 FORMAT:FORMATTED              ACCESS:SEQUENTIAL          
 ACTION:READ                


 OPENED test4_ets_list.rch
 FILE TYPE:RCH8                   UNIT 1009   STATUS:OLD                 
 FORMAT:FORMATTED              ACCESS:SEQUENTIAL          
 ACTION:READ                


 OPENED test4_ets_list.oc
 FILE TYPE:OC8                    UNIT 1010   STATUS:OLD                 
 FORMAT:FORMATTED              ACCESS:SEQUENTIAL          
 ACTION:READ                


 OPENED test4_ets_list.dis
 FILE TYPE:DIS8                   UNIT 1011   STATUS:OLD                 
 FORMAT:FORMATTED              ACCESS:SEQUENTIAL          
 ACTION:READ                


 OPENED test4_ets_list.ghb
 FILE TYPE:GHB8                   UNIT 1012   STATUS:OLD                 
 FORMAT:FORMATTED              ACCESS:SEQUENTIAL          
 ACTION:READ                


 OPENED test4_ets_list.sto
 FILE TYPE:STO8                   UNIT 1013   STATUS:OLD                 
 FORMAT:FORMATTED              ACCESS:SEQUENTIAL          
 ACTION:READ                


 OPENED test4_ets_list.evt
 FILE TYPE:EVT8                   UNIT 1014   STATUS:OLD                 
 FORMAT:FORMATTED              ACCESS:SEQUENTIAL          
 ACTION:READ                


 OPENED test4_ets_list.obs
 FILE TYPE:OBS8                   UNIT 1015   STATUS:OLD                 
 FORMAT:FORMATTED              ACCESS:SEQUENTIAL          
 ACTION:READ                


 OPENED test4_ets_list.chd
 FILE TYPE:CHD8                   UNIT 1016   STATUS:OLD                 
 FORMAT:FORMATTED              ACCESS:SEQUENTIAL          
 ACTION:READ                


 OPENED test4_ets_list.cbc
 FILE TYPE:DATA(BINARY)           UNIT 1017   STATUS:REPLACE             
 FORMAT:UNFORMATTED            ACCESS:STREAM              
 ACTION:READWRITE           


 OPENED test4_ets_list.hds
 FILE TYPE:DATA                   UNIT 1018   STATUS:REPLACE             
 FORMAT:FORMATTED              ACCESS:SEQUENTIAL          
 ACTION:READWRITE           


 OPENED ibound.out
 FILE TYPE:DATA                   UNIT 1019   STATUS:REPLACE             
 FORMAT:FORMATTED              ACCESS:SEQUENTIAL          
 ACTION:READWRITE           


 OPENED head_obs.csv
 FILE TYPE:DATA                   UNIT 1020   STATUS:REPLACE             
 FORMAT:FORMATTED              ACCESS:SEQUENTIAL          
 ACTION:READWRITE           


 OPENED riv_obs.csv
 FILE TYPE:DATA                   UNIT 1021   STATUS:REPLACE             
 FORMAT:FORMATTED              ACCESS:SEQUENTIAL          
 ACTION:READWRITE           


 OPENED ghb_obs.csv
 FILE TYPE:DATA                   UNIT 1022   STATUS:REPLACE             
 FORMAT:FORMATTED              ACCESS:SEQUENTIAL          
 ACTION:READWRITE           


 OPENED ghb_flows.csv
 FILE TYPE:DATA                   UNIT 1023   STATUS:REPLACE             
 FORMAT:FORMATTED              ACCESS:SEQUENTIAL          
 ACTION:READWRITE           


 OPENED head_hydrographs.csv
 FILE TYPE:DATA                   UNIT 1024   STATUS:REPLACE             
 FORMAT:FORMATTED              ACCESS:SEQUENTIAL          
 ACTION:READWRITE           


 OPENED riv_flows.csv
 FILE TYPE:DATA                   UNIT 1025   STATUS:REPLACE             
 FORMAT:FORMATTED              ACCESS:SEQUENTIAL          
 ACTION:READWRITE           


 OPENED intercell_flow_obs1.csv
 FILE TYPE:DATA                   UNIT 1026   STATUS:REPLACE             
 FORMAT:FORMATTED              ACCESS:SEQUENTIAL          
 ACTION:READWRITE           


 OPENED intercell_flow_obs2.csv
 FILE TYPE:DATA                   UNIT 1027   STATUS:REPLACE             
 FORMAT:FORMATTED              ACCESS:SEQUENTIAL          
 ACTION:READWRITE           


 OPENED intercell_flows.csv
 FILE TYPE:DATA                   UNIT 1028   STATUS:REPLACE             
 FORMAT:FORMATTED              ACCESS:SEQUENTIAL          
 ACTION:READWRITE           


 OPENED chd_flows.csv
 FILE TYPE:DATA                   UNIT 1029   STATUS:REPLACE             
 FORMAT:FORMATTED              ACCESS:SEQUENTIAL          
 ACTION:READWRITE           


 OPENED chd_obs.csv
 FILE TYPE:DATA                   UNIT 1030   STATUS:REPLACE             
 FORMAT:FORMATTED              ACCESS:SEQUENTIAL          
 ACTION:READWRITE           


 DIS -- STRUCTURED GRID DISCRETIZATION PACKAGE, VERSION 2 : 3/27/2014 - INPUT READ FROM UNIT 1011


 PROCESSING DISCRETIZATION OPTIONS
    MODEL LENGTH UNIT IS FEET
 END OF DISCRETIZATION OPTIONS
 PROCESSING DISCRETIZATION DIMENSIONS
    NLAY =       2
    NROW =      10
    NCOL =      15
 END OF DISCRETIZATION DIMENSIONS
 PROCESSING DISDATA

                     DELR =   500.000    

                     DELC =   500.000    

 TOP ELEVATION OF LAYER 1 =   150.000    

   MODEL LAYER BOTTOM EL. =   50.0000     FOR LAYER   1

   MODEL LAYER BOTTOM EL. =  -50.0000     FOR LAYER   2
 END PROCESSING DISDATA

 WEL   -- WELLS PACKAGE, VERSION 8, 2/22/2014 INPUT READ FROM UNIT 1007
 #option block.  Note -- no comments allowed on aux line

 PROCESSING WELLS OPTIONS
    AUXILIARY WELLS VARIABLE: VAR1            
    AUXILIARY WELLS VARIABLE: VAR2            
    AUXILIARY WELLS VARIABLE: VAR3            
    WELLS NEAR RIVER PACKAGE NAME: WELLS NEAR RIVER
    LISTS OF WELLS NEAR RIVER CELLS WILL BE PRINTED.
    WELLS NEAR RIVER FLOWS WILL BE PRINTED TO LISTING FILE.
    FLOWS WILL BE SAVED TO BUDGET FILE SPECIFIED IN OUTPUT CONTROL
    WELLS NEAR RIVER BOUNDARIES HAVE NAMES IN LAST COLUMN.
    TIME-SERIES DATA WILL BE READ FROM FILE: well-1_rate.ts

 OPENED well-1_rate.ts
 FILE TYPE:TS   UNIT 1031   STATUS:OLD                 
 FORMAT:FORMATTED              ACCESS:SEQUENTIAL          
 ACTION:READ                

    TIME-SERIES DATA WILL BE READ FROM FILE: well-2_rate.ts

 OPENED well-2_rate.ts
 FILE TYPE:TS   UNIT 1032   STATUS:OLD                 
 FORMAT:FORMATTED              ACCESS:SEQUENTIAL          
 ACTION:READ                

 END OF WELLS NEAR RIVER OPTIONS

 PROCESSING WELLS NEAR RIVER DIMENSIONS
    MAXBOUND =       5
 END OF WELLS NEAR RIVER DIMENSIONS

 RIV   -- RIVER LEAKAGE PACKAGE, VERSION 8, 2/22/2014 INPUT READ FROM UNIT 1008

 PROCESSING RIVER LEAKAGE OPTIONS
    RIVER PACKAGE NAME: RIVER           
    LISTS OF RIVER CELLS WILL BE PRINTED.
    RIVER FLOWS WILL BE PRINTED TO LISTING FILE.
    FLOWS WILL BE SAVED TO BUDGET FILE SPECIFIED IN OUTPUT CONTROL
    RIVER BOUNDARIES HAVE NAMES IN LAST COLUMN.
    TIME-SERIES DATA WILL BE READ FROM FILE: riv_stage.ts

 OPENED riv_stage.ts
 FILE TYPE:TS   UNIT 1033   STATUS:OLD                 
 FORMAT:FORMATTED              ACCESS:SEQUENTIAL          
 ACTION:READ                

 END OF RIVER OPTIONS

 PROCESSING RIVER DIMENSIONS
    MAXBOUND =      20
 #  autodetect
 END OF RIVER DIMENSIONS

 GHB   -- HEAD DEP BOUNDS PACKAGE, VERSION 8, 2/22/2014 INPUT READ FROM UNIT 1012
 # Options block

 PROCESSING HEAD DEP BOUNDS OPTIONS
    GHB LAKES PACKAGE NAME: GHB LAKES       
    LISTS OF GHB LAKES CELLS WILL BE PRINTED.
    GHB LAKES FLOWS WILL BE PRINTED TO LISTING FILE.
    GHB LAKES BOUNDARIES HAVE NAMES IN LAST COLUMN.
 END OF GHB LAKES OPTIONS
 # Dimensions block

 PROCESSING GHB LAKES DIMENSIONS
    MAXBOUND =       3
 END OF GHB LAKES DIMENSIONS

 RCH   -- RECHARGE PACKAGE, VERSION 8, 2/22/2014 INPUT READ FROM UNIT 1009

 PROCESSING RECHARGE OPTIONS
    AUXILIARY RECHARGE VARIABLE: VAR1            
    AUXILIARY RECHARGE VARIABLE: VAR2            
    RECHARGE WILL BE APPLIED TO HIGHEST ACTIVE CELL.
    LISTS OF RECHARGE CELLS WILL BE PRINTED.
    RECHARGE FLOWS WILL BE PRINTED TO LISTING FILE.
    FLOWS WILL BE SAVED TO BUDGET FILE SPECIFIED IN OUTPUT CONTROL
    RECHARGE PACKAGE NAME: RECHARGE        
 END OF RECHARGE OPTIONS
 #dimension block is required

 PROCESSING RECHARGE DIMENSIONS
    MAXBOUND =     150
 END OF RECHARGE DIMENSIONS

 EVT   -- EVT PACKAGE, VERSION 8, 2/22/2014 INPUT READ FROM UNIT 1014
 # ETS input file

 PROCESSING EVT OPTIONS
    LISTS OF EVT CELLS WILL BE PRINTED.
    EVT FLOWS WILL BE PRINTED TO LISTING FILE.
    FLOWS WILL BE SAVED TO BUDGET FILE SPECIFIED IN OUTPUT CONTROL
    ET SEGS PACKAGE NAME: ET SEGS         
    EVT INPUT WILL BE READ AS LIST(S).
    EVT MAX. RATE MULTIPLIER WILL BE READ.
    ET SEGS BOUNDARIES HAVE NAMES IN LAST COLUMN.
    TIME-SERIES DATA WILL BE READ FROM FILE: max_et_rate.ts

 OPENED max_et_rate.ts
 FILE TYPE:TS   UNIT 1034   STATUS:OLD                 
 FORMAT:FORMATTED              ACCESS:SEQUENTIAL          
 ACTION:READ                

    EVAPOTRANSPIRATION WILL BE APPLIED TO HIGHEST ACTIVE CELL.
 END OF ET SEGS OPTIONS

 PROCESSING ET SEGS DIMENSIONS
    MAXBOUND =      20
 #  autodetect
 END OF ET SEGS DIMENSIONS

 CHD   -- CONSTANT HEAD PACKAGE, VERSION 8, 2/22/2014 INPUT READ FROM UNIT 1016

 PROCESSING CONSTANT HEAD OPTIONS
    CONSTANT HEADS PACKAGE NAME: CONSTANT HEADS  
    CONSTANT HEADS BOUNDARIES HAVE NAMES IN LAST COLUMN.
    LISTS OF CONSTANT HEADS CELLS WILL BE PRINTED.
    CONSTANT HEADS FLOWS WILL BE PRINTED TO LISTING FILE.
    FLOWS WILL BE SAVED TO BUDGET FILE SPECIFIED IN OUTPUT CONTROL
 END OF CONSTANT HEADS OPTIONS

 PROCESSING CONSTANT HEADS DIMENSIONS
    MAXBOUND =      10
 END OF CONSTANT HEADS DIMENSIONS

 IC -- INITIAL CONDITIONS PACKAGE, VERSION 8, 3/28/2015 INPUT READ FROM UNIT 1005
 #Valley aquifer with 2 sand layers separated by silt.  Stress period 1 is natur
 # conditions.  Stress period 2 adds wells.
 PROCESSING IC OPTIONS
 END OF IC OPTIONS
 PROCESSING ICDATA

             INITIAL HEAD =  100.0000     FOR LAYER   1

             INITIAL HEAD =  100.0000     FOR LAYER   2
 END PROCESSING ICDATA

 NPF -- NODE PROPERTY FLOW PACKAGE, VERSION 1, 3/30/2015 INPUT READ FROM UNIT 1006


 PROCESSING NPF OPTIONS
    CELL-BY-CELL FLOW INFORMATION WILL BE SAVED TO BINARY FILE WHENEVER ICBCFL IS NOT ZERO.
 #  VFC  (turn on vertical flow correction).  Default is off?
    VERTICAL CONDUCTANCE IS CONSTANT.
 #  CVCORRECTION (default is off)
    REWETTING IS ACTIVE.
    IWETIT HAS BEEN SET TO:     1
    WETTING FACTOR HAS BEEN SET TO:    1.000000    
    IHDWET HAS BEEN SET TO:     0
    THE VALUE FOR HDRY HAS BEEN SET TO:     777.770    
 END OF NPF OPTIONS
 #
 PROCESSING NPFDATA

                ICELLTYPE =              1 FOR LAYER   1

                ICELLTYPE =              0 FOR LAYER   2

                 ICELLAVG =         0



                             WETDRY FOR LAYER   1
 READING ON UNIT 1006 WITH FORMAT: (FREE)              

           1          2          3          4          5          6          7          8          9         10         11
          12         13         14         15
 .........................................................................................................................
   1    2.00       2.00       2.00       2.00       2.00       2.00       2.00       2.00      -2.00      -2.00      -2.00    
       -2.00      -2.00      -2.00      -2.00    
   2    2.00       2.00       2.00       2.00       2.00       2.00       2.00       2.00      -2.00      -2.00      -2.00    
       -2.00      -2.00      -2.00      -2.00    
   3    2.00       2.00       2.00      -2.00       2.00       2.00       2.00       2.00      -2.00      -2.00      -2.00    
       -2.00      -2.00      -2.00      -2.00    
   4    2.00       2.00       2.00       2.00       2.00       2.00       2.00       2.00      -2.00      -2.00      -2.00    
       -2.00      -2.00      -2.00      -2.00    
   5    2.00       2.00       2.00       2.00       2.00       2.00       2.00       2.00      -2.00      -2.00      -2.00    
       -2.00      -2.00      -2.00      -2.00    
   6    2.00       2.00       2.00       2.00       2.00       2.00       2.00       2.00      -2.00      -2.00      -2.00    
       -2.00      -2.00      -2.00      -2.00    
   7    2.00       2.00       2.00       2.00       2.00       2.00       2.00       2.00      -2.00      -2.00      -2.00    
       -2.00      -2.00      -2.00      -2.00    
   8    2.00       2.00       2.00      -2.00       2.00       2.00       2.00       2.00      -2.00      -2.00      -2.00    
       -2.00      -2.00      -2.00      -2.00    
   9    2.00       2.00       2.00       2.00       2.00       2.00       2.00       2.00      -2.00      -2.00      -2.00    
       -2.00      -2.00      -2.00      -2.00    
  10    2.00       2.00       2.00       2.00       2.00       2.00       2.00       2.00      -2.00      -2.00      -2.00    
       -2.00      -2.00      -2.00      -2.00    

                   WETDRY =   0.00000     FOR LAYER   2

                       HK =   4.00000     FOR LAYER   1

                       HK =  0.500000     FOR LAYER   2

                       VK =  1.000000E-02
 END PROCESSING NPFDATA

 STO -- STORAGE PACKAGE, VERSION 1, 5/19/2014 INPUT READ FROM UNIT 1013


 PROCESSING STORAGE OPTIONS
    CELL-BY-CELL FLOW INFORMATION WILL BE SAVED TO BINARY FILE WHENEVER ICBCFL IS NOT ZERO.
 #STORAGECOEFFICIENT uncomment if SS is entered as storage coefficient
 END OF STORAGE OPTIONS

 OUTPUT CONTROL IS SPECIFIED ONLY AT TIME STEPS FOR WHICH OUTPUT IS DESIRED
 BINARY CELL-BY-CELL BUDGET INFORMATION WILL BE WRITTEN TO FILE:
 test4_ets_list.cbc
 OPENED ON UNIT NUMBER:   1017
 HEAD             WILL BE SAVED WITH FORMAT: (15f7.2)                                                    
 SAVED HEAD             WILL BE LABELED
 IBOUND           WILL BE SAVED WITH FORMAT: (15i2)                                                      
 SAVED IBOUND           WILL BE LABELED
 HEAD PRINT FORMAT CODE IS   4
 DRAWDOWN PRINT FORMAT CODE IS   0
 IBOUND PRINT FORMAT CODE IS   0
 HEAD WILL BE SAVED ON UNIT 1018
 IBOUND WILL BE SAVED ON UNIT 1019

The Observation Process is active

Processing observation options:

Binary output precision set to: SINGLE
Text output number of digits of precision set to: 10
"Structured" option found. Cell locations for observations will be
read as: Layer Row Column.

 #

 REUSING STORAGE VALUES FROM LAST STRESS PERIOD

 REUSING WELS FROM LAST STRESS PERIOD
 #    layer       row       col    stage        cond       rbot  BoundName

 RIV NO.  LAYER   ROW    COL       STAGE         CONDUCTANCE  BOTTOM EL.      BOUNDARY NAME         
 ---------------------------------------------------------------------------------------------------
      1      1      1     15       101.0          0.1000E+05      100.00                      
      2      1      2     15       101.0          0.1000E+05      100.00      RIV2            
      3      1      3     15       101.0          0.1000E+05      100.00      RIV3            
      4      1      4     15       101.0          0.1000E+05      100.00                      
      5      1      5     15       101.0          0.1000E+05      100.00                      
      6      1      6     15       101.0          0.1000E+05      100.00                      
      7      1      7     15       101.0          0.1000E+05      100.00      RIVX            
      8      1      8     15       101.0          0.1000E+05      100.00      RIVX            
      9      1      9     15       101.0          0.1000E+05      100.00      RIVX            
     10      1     10     15       101.0          0.1000E+05      100.00                      
 # Stress-period block(s)

 GHB NO.  LAYER   ROW    COL       STAGE         CONDUCTANCE  BOUNDARY NAME         
 -----------------------------------------------------------------------------------
      1      1      3      1      100.00           1500.                      
      2      1      7      1       110.0           1400.      GHB2_UPPER      
      3      1      7      1       85.00           500.0      GHB2_LOWER      

      LAYER OR NODE INDEX =              1

                 RECHARGE =  2.000000E-04

 VAR1                     =  100.0000    
 # Lay  Row  Col  SURFACE   RATE    DEPTH  PXPD1  PXPD2  PETM1  PETM2   Multiplier  BoundName

 EVT NO.  LAYER   ROW    COL      SURFACE         MAX. RATE     EXT. DEPTH         PXDP            PXDP            PETM            PETM       BOUNDARY NAME         
 -------------------------------------------------------------------------------------------------------------------------------------------------------------------
      1      1      1     13       110.0          0.3000E-02      10.000          0.2000          0.5000          0.3000          0.1000E+00  ET-1            
      2      1      2     13       110.0          0.6000E-02      10.000          0.2000          0.5000          0.3000          0.1000E+00  ET-2            
      3      1      3     13       110.0          0.9000E-02      10.000          0.2000          0.5000          0.3000          0.1000E+00  ET-3            
      4      1      4     13       110.0          0.1200E-01      10.000          0.2000          0.5000          0.3000          0.1000E+00  ET-4            
      5      1      5     13       110.0          0.2000E-01      10.000          0.2000          0.5000          0.3000          0.1000E+00  ET-5            
      6      1      6     13       110.0          0.2000E-01      10.000          0.2000          0.5000          0.3000          0.1000E+00  ET-6            
      7      1      7     13       110.0          0.1400E-01      10.000          0.2000          0.5000          0.3000          0.1000E+00  ET-7            
      8      1      8     13       110.0          0.1000E-01      10.000          0.2000          0.5000          0.3000          0.1000E+00  ET-8            
      9      1      9     13       110.0          0.6000E-02      10.000          0.2000          0.5000          0.3000          0.1000E+00  ET-9            
     10      1     10     13       110.0          0.1500E-02      10.000          0.2000          0.5000          0.3000          0.1000E+00  ET-10           
     11      1      1     12       110.0          0.3000E-02      10.000          0.2000          0.5000          0.3000          0.1000E+00  ET-1            
     12      1      2     12       110.0          0.6000E-02      10.000          0.2000          0.5000          0.3000          0.1000E+00  ET-2            
     13      1      3     12       110.0          0.9000E-02      10.000          0.2000          0.5000          0.3000          0.1000E+00  ET-3            
     14      1      4     12       110.0          0.1200E-01      10.000          0.2000          0.5000          0.3000          0.1000E+00  ET-4            
     15      1      5     12       110.0          0.2000E-01      10.000          0.2000          0.5000          0.3000          0.1000E+00  ET-5            
     16      1      6     12       110.0          0.2000E-01      10.000          0.2000          0.5000          0.3000          0.1000E+00  ET-6            
     17      1      7     12       110.0          0.1400E-01      10.000          0.2000          0.5000          0.3000          0.1000E+00  ET-7            
     18      1      8     12       110.0          0.1000E-01      10.000          0.2000          0.5000          0.3000          0.1000E+00  ET-8            
     19      1      9     12       110.0          0.6000E-02      10.000          0.2000          0.5000          0.3000          0.1000E+00  ET-9            
     20      1     10     12       110.0          0.1500E-02      10.000          0.2000          0.5000          0.3000          0.1000E+00  ET-10           
 #L   R   C  shead  ehead  name

 CHD NO.  LAYER   ROW    COL       SHEAD           EHEAD      BOUNDARY NAME         
 -----------------------------------------------------------------------------------
      1      1      1      1       120.0           120.0      CHD-1           
      2      1      4      1       120.0           120.0                      
      3      1      5      1       120.0           120.0      CHD_GP          
      4      1      6      1       120.0           120.0      CHD_GP          
      5      1     10      1       120.0           120.0      CHD-10          
RIV   no.    1 value from time series:   101.00     for time:  0.000     to 1.0000    
RIV   no.    2 value from time series:   101.00     for time:  0.000     to 1.0000    
RIV   no.    3 value from time series:   101.00     for time:  0.000     to 1.0000    
RIV   no.    4 value from time series:   101.00     for time:  0.000     to 1.0000    
RIV   no.    5 value from time series:   101.00     for time:  0.000     to 1.0000    
RIV   no.    6 value from time series:   101.00     for time:  0.000     to 1.0000    
RIV   no.    7 value from time series:   101.00     for time:  0.000     to 1.0000    
RIV   no.    8 value from time series:   101.00     for time:  0.000     to 1.0000    
RIV   no.    9 value from time series:   101.00     for time:  0.000     to 1.0000    
RIV   no.   10 value from time series:   101.00     for time:  0.000     to 1.0000    
EVT   no.    1 value from time series:   787.50     for time:  0.000     to 1.0000    
EVT   no.    2 value from time series:   1575.0     for time:  0.000     to 1.0000    
EVT   no.    3 value from time series:   2362.5     for time:  0.000     to 1.0000    
EVT   no.    4 value from time series:   3150.0     for time:  0.000     to 1.0000    
EVT   no.   10 value from time series:   393.75     for time:  0.000     to 1.0000    
EVT   no.   11 value from time series:   787.50     for time:  0.000     to 1.0000    
EVT   no.   12 value from time series:   1575.0     for time:  0.000     to 1.0000    
EVT   no.   13 value from time series:   2362.5     for time:  0.000     to 1.0000    
EVT   no.   14 value from time series:   3150.0     for time:  0.000     to 1.0000    
EVT   no.   20 value from time series:   393.75     for time:  0.000     to 1.0000    

 CELL CONVERSIONS FOR ITER.=  1  STEP=  1  PERIOD=   1   (NODE or LRC)
     DRY             (1,1,2) DRY             (1,1,3) DRY             (1,1,4) DRY             (1,1,5) DRY             (1,1,6)
     DRY             (1,1,7) DRY             (1,1,8) DRY             (1,1,9) DRY            (1,1,10) DRY            (1,1,11)
     DRY            (1,1,12) DRY            (1,1,13) DRY            (1,1,14) DRY            (1,1,15) DRY             (1,2,1)
     DRY             (1,2,2) DRY             (1,2,3) DRY             (1,2,4) DRY             (1,2,5) DRY             (1,2,6)
     DRY             (1,2,7) DRY             (1,2,8) DRY             (1,2,9) DRY            (1,2,10) DRY            (1,2,11)
     DRY            (1,2,12) DRY            (1,2,13) DRY            (1,2,14) DRY            (1,2,15) DRY             (1,3,1)
     DRY             (1,3,2) DRY             (1,3,3) DRY             (1,3,4) DRY             (1,3,5) DRY             (1,3,6)
     DRY             (1,3,7) DRY             (1,3,8) DRY             (1,3,9) DRY            (1,3,10) DRY            (1,3,11)
     DRY            (1,3,12) DRY            (1,3,13) DRY            (1,3,14) DRY            (1,3,15) DRY             (1,4,2)
     DRY             (1,4,3) DRY             (1,4,4) DRY             (1,4,5) DRY             (1,4,6) DRY             (1,4,7)
     DRY             (1,4,8) DRY             (1,4,9) DRY            (1,4,10) DRY            (1,4,11) DRY            (1,4,12)
     DRY            (1,4,13) DRY            (1,4,14) DRY            (1,4,15) DRY             (1,5,2) DRY             (1,5,3)
     DRY             (1,5,4) DRY             (1,5,5) DRY             (1,5,6) DRY             (1,5,7) DRY             (1,5,8)
     DRY             (1,5,9) DRY            (1,5,10) DRY            (1,5,11) DRY            (1,5,12) DRY            (1,5,13)
     DRY            (1,5,14) DRY            (1,5,15) DRY             (1,6,2) DRY             (1,6,3) DRY             (1,6,4)
     DRY             (1,6,5) DRY             (1,6,6) DRY             (1,6,7) DRY             (1,6,8) DRY             (1,6,9)
     DRY            (1,6,10) DRY            (1,6,11) DRY            (1,6,12) DRY            (1,6,13) DRY            (1,6,14)
     DRY            (1,6,15) DRY             (1,7,1) DRY             (1,7,2) DRY             (1,7,3) DRY             (1,7,4)
     DRY             (1,7,5) DRY             (1,7,6) DRY             (1,7,7) DRY             (1,7,8) DRY             (1,7,9)
     DRY            (1,7,10) DRY            (1,7,11) DRY            (1,7,12) DRY            (1,7,13) DRY            (1,7,14)
     DRY            (1,7,15) DRY             (1,8,1) DRY             (1,8,2) DRY             (1,8,3) DRY             (1,8,4)
     DRY             (1,8,5) DRY             (1,8,6) DRY             (1,8,7) DRY             (1,8,8) DRY             (1,8,9)
     DRY            (1,8,10) DRY            (1,8,11) DRY            (1,8,12) DRY            (1,8,13) DRY            (1,8,14)
     DRY            (1,8,15) DRY             (1,9,1) DRY             (1,9,2) DRY             (1,9,3) DRY             (1,9,4)
     DRY             (1,9,5) DRY             (1,9,6) DRY             (1,9,7) DRY             (1,9,8) DRY             (1,9,9)
     DRY            (1,9,10) DRY            (1,9,11) DRY            (1,9,12) DRY            (1,9,13) DRY            (1,9,14)
     DRY            (1,9,15) DRY            (1,10,2) DRY            (1,10,3) DRY            (1,10,4) DRY            (1,10,5)
     DRY            (1,10,6) DRY            (1,10,7) DRY            (1,10,8) DRY            (1,10,9) DRY           (1,10,10)
     DRY           (1,10,11) DRY           (1,10,12) DRY           (1,10,13) DRY           (1,10,14) DRY           (1,10,15)

 CELL CONVERSIONS FOR ITER.=  2  STEP=  1  PERIOD=   1   (NODE or LRC)
     WET             (1,1,2) WET             (1,1,3) WET             (1,1,4) WET             (1,1,5) WET             (1,1,6)
     WET             (1,1,7) WET             (1,1,8) WET             (1,1,9) WET            (1,1,10) WET            (1,1,11)
     WET            (1,1,12) WET            (1,1,13) WET            (1,1,14) WET            (1,1,15) WET             (1,2,1)
     WET             (1,2,2) WET             (1,2,3) WET             (1,2,4) WET             (1,2,5) WET             (1,2,6)
     WET             (1,2,7) WET             (1,2,8) WET             (1,2,9) WET            (1,2,10) WET            (1,2,11)
     WET            (1,2,12) WET            (1,2,13) WET            (1,2,14) WET            (1,2,15) WET             (1,3,1)
     WET             (1,3,2) WET             (1,3,3) WET             (1,3,4) WET             (1,3,5) WET             (1,3,6)
     WET             (1,3,7) WET             (1,3,8) WET             (1,3,9) WET            (1,3,10) WET            (1,3,11)
     WET            (1,3,12) WET            (1,3,13) WET            (1,3,14) WET            (1,3,15) WET             (1,4,2)
     WET             (1,4,3) WET             (1,4,4) WET             (1,4,5) WET             (1,4,6) WET             (1,4,7)
     WET             (1,4,8) WET             (1,4,9) WET            (1,4,10) WET            (1,4,11) WET            (1,4,12)
     WET            (1,4,13) WET            (1,4,14) WET            (1,4,15) WET             (1,5,2) WET             (1,5,3)
     WET             (1,5,4) WET             (1,5,5) WET             (1,5,6) WET             (1,5,7) WET             (1,5,8)
     WET             (1,5,9) WET            (1,5,10) WET            (1,5,11) WET            (1,5,12) WET            (1,5,13)
     WET            (1,5,14) WET            (1,5,15) WET             (1,6,2) WET             (1,6,3) WET             (1,6,4)
     WET             (1,6,5) WET             (1,6,6) WET             (1,6,7) WET             (1,6,8) WET             (1,6,9)
     WET            (1,6,10) WET            (1,6,11) WET            (1,6,12) WET            (1,6,13) WET            (1,6,14)
     WET            (1,6,15) WET             (1,7,1) WET             (1,7,2) WET             (1,7,3) WET             (1,7,4)
     WET             (1,7,5) WET             (1,7,6) WET             (1,7,7) WET             (1,7,8) WET             (1,7,9)
     WET            (1,7,10) WET            (1,7,11) WET            (1,7,12) WET            (1,7,13) WET            (1,7,14)
     WET            (1,7,15) WET             (1,8,1) WET             (1,8,2) WET             (1,8,3) WET             (1,8,4)
     WET             (1,8,5) WET             (1,8,6) WET             (1,8,7) WET             (1,8,8) WET             (1,8,9)
     WET            (1,8,10) WET            (1,8,11) WET            (1,8,12) WET            (1,8,13) WET            (1,8,14)
     WET            (1,8,15) WET             (1,9,1) WET             (1,9,2) WET             (1,9,3) WET             (1,9,4)
     WET             (1,9,5) WET             (1,9,6) WET             (1,9,7) WET             (1,9,8) WET             (1,9,9)
     WET            (1,9,10) WET            (1,9,11) WET            (1,9,12) WET            (1,9,13) WET            (1,9,14)
     WET            (1,9,15) WET            (1,10,2) WET            (1,10,3) WET            (1,10,4) WET            (1,10,5)
     WET            (1,10,6) WET            (1,10,7) WET            (1,10,8) WET            (1,10,9) WET           (1,10,10)
     WET           (1,10,11) WET           (1,10,12) WET           (1,10,13) WET           (1,10,14) WET           (1,10,15)
RIV   no.    1 value from time series:   101.00     for time:  0.000     to 1.0000    
RIV   no.    2 value from time series:   101.00     for time:  0.000     to 1.0000    
RIV   no.    3 value from time series:   101.00     for time:  0.000     to 1.0000    
RIV   no.    4 value from time series:   101.00     for time:  0.000     to 1.0000    
RIV   no.    5 value from time series:   101.00     for time:  0.000     to 1.0000    
RIV   no.    6 value from time series:   101.00     for time:  0.000     to 1.0000    
RIV   no.    7 value from time series:   101.00     for time:  0.000     to 1.0000    
RIV   no.    8 value from time series:   101.00     for time:  0.000     to 1.0000    
RIV   no.    9 value from time series:   101.00     for time:  0.000     to 1.0000    
RIV   no.   10 value from time series:   101.00     for time:  0.000     to 1.0000    
EVT   no.    1 value from time series:   787.50     for time:  0.000     to 1.0000    
EVT   no.    2 value from time series:   1575.0     for time:  0.000     to 1.0000    
EVT   no.    3 value from time series:   2362.5     for time:  0.000     to 1.0000    
EVT   no.    4 value from time series:   3150.0     for time:  0.000     to 1.0000    
EVT   no.   10 value from time series:   393.75     for time:  0.000     to 1.0000    
EVT   no.   11 value from time series:   787.50     for time:  0.000     to 1.0000    
EVT   no.   12 value from time series:   1575.0     for time:  0.000     to 1.0000    
EVT   no.   13 value from time series:   2362.5     for time:  0.000     to 1.0000    
EVT   no.   14 value from time series:   3150.0     for time:  0.000     to 1.0000    
EVT   no.   20 value from time series:   393.75     for time:  0.000     to 1.0000    

 OUTPUT CONTROL FOR STRESS PERIOD    1   TIME STEP    1
    PRINT BUDGET
    PRINT HEAD
    PRINT HEAD FOR ALL LAYERS
    SAVE BUDGET
    SAVE HEAD
    SAVE HEAD FOR ALL LAYERS
 UBDSV1 SAVING      STORAGE(SS) ON UNIT   1017 AT TIME STEP      1, STRESS PERIOD      1
 UBDSV1 SAVING      STORAGE(SY) ON UNIT   1017 AT TIME STEP      1, STRESS PERIOD      1
 UBDSV1 SAVING FLOW RIGHT FACE  ON UNIT   1017 AT TIME STEP      1, STRESS PERIOD      1
 UBDSV1 SAVING FLOW FRONT FACE  ON UNIT   1017 AT TIME STEP      1, STRESS PERIOD      1
 UBDSV1 SAVING FLOW LOWER FACE  ON UNIT   1017 AT TIME STEP      1, STRESS PERIOD      1
 UBDSV4 SAVING WELLS NEAR RIVER ON UNIT   1017 AT TIME STEP      1, STRESS PERIOD      1
 UBDSV4 SAVING RIVER            ON UNIT   1017 AT TIME STEP      1, STRESS PERIOD      1

 RIVER              PERIOD  1   STEP  1
 BOUNDARY      1   LAYER   1   ROW     1   COL    15   RATE    -395.473    
 BOUNDARY      2   LAYER   1   ROW     2   COL    15   RATE    -377.587      RIV2
 BOUNDARY      3   LAYER   1   ROW     3   COL    15   RATE    -350.736      RIV3
 BOUNDARY      4   LAYER   1   ROW     4   COL    15   RATE    -322.771    
 BOUNDARY      5   LAYER   1   ROW     5   COL    15   RATE    -301.113    
 BOUNDARY      6   LAYER   1   ROW     6   COL    15   RATE    -300.486    
 BOUNDARY      7   LAYER   1   ROW     7   COL    15   RATE    -321.334      RIVX
 BOUNDARY      8   LAYER   1   ROW     8   COL    15   RATE    -352.323      RIVX
 BOUNDARY      9   LAYER   1   ROW     9   COL    15   RATE    -384.705      RIVX
 BOUNDARY     10   LAYER   1   ROW    10   COL    15   RATE    -407.784    

 GHB LAKES          PERIOD  1   STEP  1
 BOUNDARY      1   LAYER   1   ROW     3   COL     1   RATE    -7764.73    
 BOUNDARY      2   LAYER   1   ROW     7   COL     1   RATE     4439.90      GHB2_UPPER
 BOUNDARY      3   LAYER   1   ROW     7   COL     1   RATE    -10914.3      GHB2_LOWER
 UBDSV4 SAVING RECHARGE         ON UNIT   1017 AT TIME STEP      1, STRESS PERIOD      1

 RECHARGE           PERIOD  1   STEP  1
 BOUNDARY      2   LAYER   1   ROW     1   COL     2   RATE     50.0000    
 BOUNDARY      3   LAYER   1   ROW     1   COL     3   RATE     50.0000    
 BOUNDARY      4   LAYER   1   ROW     1   COL     4   RATE     50.0000    
 BOUNDARY      5   LAYER   1   ROW     1   COL     5   RATE     50.0000    
 BOUNDARY      6   LAYER   1   ROW     1   COL     6   RATE     50.0000    
 BOUNDARY      7   LAYER   1   ROW     1   COL     7   RATE     50.0000    
 BOUNDARY      8   LAYER   1   ROW     1   COL     8   RATE     50.0000    
 BOUNDARY      9   LAYER   1   ROW     1   COL     9   RATE     50.0000    
 BOUNDARY     10   LAYER   1   ROW     1   COL    10   RATE     50.0000    
 BOUNDARY     11   LAYER   1   ROW     1   COL    11   RATE     50.0000    
 BOUNDARY     12   LAYER   1   ROW     1   COL    12   RATE     50.0000    
 BOUNDARY     13   LAYER   1   ROW     1   COL    13   RATE     50.0000    
 BOUNDARY     14   LAYER   1   ROW     1   COL    14   RATE     50.0000    
 BOUNDARY     15   LAYER   1   ROW     1   COL    15   RATE     50.0000    
 BOUNDARY     16   LAYER   1   ROW     2   COL     1   RATE     50.0000    
 BOUNDARY     17   LAYER   1   ROW     2   COL     2   RATE     50.0000    
 BOUNDARY     18   LAYER   1   ROW     2   COL     3   RATE     50.0000    
 BOUNDARY     19   LAYER   1   ROW     2   COL     4   RATE     50.0000    
 BOUNDARY     20   LAYER   1   ROW     2   COL     5   RATE     50.0000    
 BOUNDARY     21   LAYER   1   ROW     2   COL     6   RATE     50.0000    
 BOUNDARY     22   LAYER   1   ROW     2   COL     7   RATE     50.0000    
 BOUNDARY     23   LAYER   1   ROW     2   COL     8   RATE     50.0000    
 BOUNDARY     24   LAYER   1   ROW     2   COL     9   RATE     50.0000    
 BOUNDARY     25   LAYER   1   ROW     2   COL    10   RATE     50.0000    
 BOUNDARY     26   LAYER   1   ROW     2   COL    11   RATE     50.0000    
 BOUNDARY     27   LAYER   1   ROW     2   COL    12   RATE     50.0000    
 BOUNDARY     28   LAYER   1   ROW     2   COL    13   RATE     50.0000    
 BOUNDARY     29   LAYER   1   ROW     2   COL    14   RATE     50.0000    
 BOUNDARY     30   LAYER   1   ROW     2   COL    15   RATE     50.0000    
 BOUNDARY     31   LAYER   1   ROW     3   COL     1   RATE     50.0000    
 BOUNDARY     32   LAYER   1   ROW     3   COL     2   RATE     50.0000    
 BOUNDARY     33   LAYER   1   ROW     3   COL     3   RATE     50.0000    
 BOUNDARY     34   LAYER   1   ROW     3   COL     4   RATE     50.0000    
 BOUNDARY     35   LAYER   1   ROW     3   COL     5   RATE     50.0000    
 BOUNDARY     36   LAYER   1   ROW     3   COL     6   RATE     50.0000    
 BOUNDARY     37   LAYER   1   ROW     3   COL     7   RATE     50.0000    
 BOUNDARY     38   LAYER   1   ROW     3   COL     8   RATE     50.0000    
 BOUNDARY     39   LAYER   1   ROW     3   COL     9   RATE     50.0000    
 BOUNDARY     40   LAYER   1   ROW     3   COL    10   RATE     50.0000    
 BOUNDARY     41   LAYER   1   ROW     3   COL    11   RATE     50.0000    
 BOUNDARY     42   LAYER   1   ROW     3   COL    12   RATE     50.0000    
 BOUNDARY     43   LAYER   1   ROW     3   COL    13   RATE     50.0000    
 BOUNDARY     44   LAYER   1   ROW     3   COL    14   RATE     50.0000    
 BOUNDARY     45   LAYER   1   ROW     3   COL    15   RATE     50.0000    
 BOUNDARY     47   LAYER   1   ROW     4   COL     2   RATE     50.0000    
 BOUNDARY     48   LAYER   1   ROW     4   COL     3   RATE     50.0000    
 BOUNDARY     49   LAYER   1   ROW     4   COL     4   RATE     50.0000    
 BOUNDARY     50   LAYER   1   ROW     4   COL     5   RATE     50.0000    
 BOUNDARY     51   LAYER   1   ROW     4   COL     6   RATE     50.0000    
 BOUNDARY     52   LAYER   1   ROW     4   COL     7   RATE     50.0000    
 BOUNDARY     53   LAYER   1   ROW     4   COL     8   RATE     50.0000    
 BOUNDARY     54   LAYER   1   ROW     4   COL     9   RATE     50.0000    
 BOUNDARY     55   LAYER   1   ROW     4   COL    10   RATE     50.0000    
 BOUNDARY     56   LAYER   1   ROW     4   COL    11   RATE     50.0000    
 BOUNDARY     57   LAYER   1   ROW     4   COL    12   RATE     50.0000    
 BOUNDARY     58   LAYER   1   ROW     4   COL    13   RATE     50.0000    
 BOUNDARY     59   LAYER   1   ROW     4   COL    14   RATE     50.0000    
 BOUNDARY     60   LAYER   1   ROW     4   COL    15   RATE     50.0000    
 BOUNDARY     62   LAYER   1   ROW     5   COL     2   RATE     50.0000    
 BOUNDARY     63   LAYER   1   ROW     5   COL     3   RATE     50.0000    
 BOUNDARY     64   LAYER   1   ROW     5   COL     4   RATE     50.0000    
 BOUNDARY     65   LAYER   1   ROW     5   COL     5   RATE     50.0000    
 BOUNDARY     66   LAYER   1   ROW     5   COL     6   RATE     50.0000    
 BOUNDARY     67   LAYER   1   ROW     5   COL     7   RATE     50.0000    
 BOUNDARY     68   LAYER   1   ROW     5   COL     8   RATE     50.0000    
 BOUNDARY     69   LAYER   1   ROW     5   COL     9   RATE     50.0000    
 BOUNDARY     70   LAYER   1   ROW     5   COL    10   RATE     50.0000    
 BOUNDARY     71   LAYER   1   ROW     5   COL    11   RATE     50.0000    
 BOUNDARY     72   LAYER   1   ROW     5   COL    12   RATE     50.0000    
 BOUNDARY     73   LAYER   1   ROW     5   COL    13   RATE     50.0000    
 BOUNDARY     74   LAYER   1   ROW     5   COL    14   RATE     50.0000    
 BOUNDARY     75   LAYER   1   ROW     5   COL    15   RATE     50.0000    
 BOUNDARY     77   LAYER   1   ROW     6   COL     2   RATE     50.0000    
 BOUNDARY     78   LAYER   1   ROW     6   COL     3   RATE     50.0000    
 BOUNDARY     79   LAYER   1   ROW     6   COL     4   RATE     50.0000    
 BOUNDARY     80   LAYER   1   ROW     6   COL     5   RATE     50.0000    
 BOUNDARY     81   LAYER   1   ROW     6   COL     6   RATE     50.0000    
 BOUNDARY     82   LAYER   1   ROW     6   COL     7   RATE     50.0000    
 BOUNDARY     83   LAYER   1   ROW     6   COL     8   RATE     50.0000    
 BOUNDARY     84   LAYER   1   ROW     6   COL     9   RATE     50.0000    
 BOUNDARY     85   LAYER   1   ROW     6   COL    10   RATE     50.0000    
 BOUNDARY     86   LAYER   1   ROW     6   COL    11   RATE     50.0000    
 BOUNDARY     87   LAYER   1   ROW     6   COL    12   RATE     50.0000    
 BOUNDARY     88   LAYER   1   ROW     6   COL    13   RATE     50.0000    
 BOUNDARY     89   LAYER   1   ROW     6   COL    14   RATE     50.0000    
 BOUNDARY     90   LAYER   1   ROW     6   COL    15   RATE     50.0000    
 BOUNDARY     91   LAYER   1   ROW     7   COL     1   RATE     50.0000    
 BOUNDARY     92   LAYER   1   ROW     7   COL     2   RATE     50.0000    
 BOUNDARY     93   LAYER   1   ROW     7   COL     3   RATE     50.0000    
 BOUNDARY     94   LAYER   1   ROW     7   COL     4   RATE     50.0000    
 BOUNDARY     95   LAYER   1   ROW     7   COL     5   RATE     50.0000    
 BOUNDARY     96   LAYER   1   ROW     7   COL     6   RATE     50.0000    
 BOUNDARY     97   LAYER   1   ROW     7   COL     7   RATE     50.0000    
 BOUNDARY     98   LAYER   1   ROW     7   COL     8   RATE     50.0000    
 BOUNDARY     99   LAYER   1   ROW     7   COL     9   RATE     50.0000    
 BOUNDARY    100   LAYER   1   ROW     7   COL    10   RATE     50.0000    
 BOUNDARY    101   LAYER   1   ROW     7   COL    11   RATE     50.0000    
 BOUNDARY    102   LAYER   1   ROW     7   COL    12   RATE     50.0000    
 BOUNDARY    103   LAYER   1   ROW     7   COL    13   RATE     50.0000    
 BOUNDARY    104   LAYER   1   ROW     7   COL    14   RATE     50.0000    
 BOUNDARY    105   LAYER   1   ROW     7   COL    15   RATE     50.0000    
 BOUNDARY    106   LAYER   1   ROW     8   COL     1   RATE     50.0000    
 BOUNDARY    107   LAYER   1   ROW     8   COL     2   RATE     50.0000    
 BOUNDARY    108   LAYER   1   ROW     8   COL     3   RATE     50.0000    
 BOUNDARY    109   LAYER   1   ROW     8   COL     4   RATE     50.0000    
 BOUNDARY    110   LAYER   1   ROW     8   COL     5   RATE     50.0000    
 BOUNDARY    111   LAYER   1   ROW     8   COL     6   RATE     50.0000    
 BOUNDARY    112   LAYER   1   ROW     8   COL     7   RATE     50.0000    
 BOUNDARY    113   LAYER   1   ROW     8   COL     8   RATE     50.0000    
 BOUNDARY    114   LAYER   1   ROW     8   COL     9   RATE     50.0000    
 BOUNDARY    115   LAYER   1   ROW     8   COL    10   RATE     50.0000    
 BOUNDARY    116   LAYER   1   ROW     8   COL    11   RATE     50.0000    
 BOUNDARY    117   LAYER   1   ROW     8   COL    12   RATE     50.0000    
 BOUNDARY    118   LAYER   1   ROW     8   COL    13   RATE     50.0000    
 BOUNDARY    119   LAYER   1   ROW     8   COL    14   RATE     50.0000    
 BOUNDARY    120   LAYER   1   ROW     8   COL    15   RATE     50.0000    
 BOUNDARY    121   LAYER   1   ROW     9   COL     1   RATE     50.0000    
 BOUNDARY    122   LAYER   1   ROW     9   COL     2   RATE     50.0000    
 BOUNDARY    123   LAYER   1   ROW     9   COL     3   RATE     50.0000    
 BOUNDARY    124   LAYER   1   ROW     9   COL     4   RATE     50.0000    
 BOUNDARY    125   LAYER   1   ROW     9   COL     5   RATE     50.0000    
 BOUNDARY    126   LAYER   1   ROW     9   COL     6   RATE     50.0000    
 BOUNDARY    127   LAYER   1   ROW     9   COL     7   RATE     50.0000    
 BOUNDARY    128   LAYER   1   ROW     9   COL     8   RATE     50.0000    
 BOUNDARY    129   LAYER   1   ROW     9   COL     9   RATE     50.0000    
 BOUNDARY    130   LAYER   1   ROW     9   COL    10   RATE     50.0000    
 BOUNDARY    131   LAYER   1   ROW     9   COL    11   RATE     50.0000    
 BOUNDARY    132   LAYER   1   ROW     9   COL    12   RATE     50.0000    
 BOUNDARY    133   LAYER   1   ROW     9   COL    13   RATE     50.0000    
 BOUNDARY    134   LAYER   1   ROW     9   COL    14   RATE     50.0000    
 BOUNDARY    135   LAYER   1   ROW     9   COL    15   RATE     50.0000    
 BOUNDARY    137   LAYER   1   ROW    10   COL     2   RATE     50.0000    
 BOUNDARY    138   LAYER   1   ROW    10   COL     3   RATE     50.0000    
 BOUNDARY    139   LAYER   1   ROW    10   COL     4   RATE     50.0000    
 BOUNDARY    140   LAYER   1   ROW    10   COL     5   RATE     50.0000    
 BOUNDARY    141   LAYER   1   ROW    10   COL     6   RATE     50.0000    
 BOUNDARY    142   LAYER   1   ROW    10   COL     7   RATE     50.0000    
 BOUNDARY    143   LAYER   1   ROW    10   COL     8   RATE     50.0000    
 BOUNDARY    144   LAYER   1   ROW    10   COL     9   RATE     50.0000    
 BOUNDARY    145   LAYER   1   ROW    10   COL    10   RATE     50.0000    
 BOUNDARY    146   LAYER   1   ROW    10   COL    11   RATE     50.0000    
 BOUNDARY    147   LAYER   1   ROW    10   COL    12   RATE     50.0000    
 BOUNDARY    148   LAYER   1   ROW    10   COL    13   RATE     50.0000    
 BOUNDARY    149   LAYER   1   ROW    10   COL    14   RATE     50.0000    
 BOUNDARY    150   LAYER   1   ROW    10   COL    15   RATE     50.0000    
 UBDSV4 SAVING ET SEGS          ON UNIT   1017 AT TIME STEP      1, STRESS PERIOD      1

 ET SEGS            PERIOD  1   STEP  1
 BOUNDARY      1   LAYER   1   ROW     1   COL    13   RATE    -59.7917      ET-1
 BOUNDARY      2   LAYER   1   ROW     2   COL    13   RATE    -112.980      ET-2
 BOUNDARY      3   LAYER   1   ROW     3   COL    13   RATE    -155.971      ET-3
 BOUNDARY      4   LAYER   1   ROW     4   COL    13   RATE    -189.379      ET-4
 BOUNDARY      5   LAYER   1   ROW     5   COL    13   RATE    -272.601      ET-5
 BOUNDARY      6   LAYER   1   ROW     6   COL    13   RATE    -271.739      ET-6
 BOUNDARY      7   LAYER   1   ROW     7   COL    13   RATE    -207.928      ET-7
 BOUNDARY      8   LAYER   1   ROW     8   COL    13   RATE    -164.995      ET-8
 BOUNDARY      9   LAYER   1   ROW     9   COL    13   RATE    -109.525      ET-9
 BOUNDARY     10   LAYER   1   ROW    10   COL    13   RATE    -30.9748      ET-10
 BOUNDARY     11   LAYER   1   ROW     1   COL    12   RATE    -90.7546      ET-1
 BOUNDARY     12   LAYER   1   ROW     2   COL    12   RATE    -157.390      ET-2
 BOUNDARY     13   LAYER   1   ROW     3   COL    12   RATE    -220.796      ET-3
 BOUNDARY     14   LAYER   1   ROW     4   COL    12   RATE    -273.141      ET-4
 BOUNDARY     15   LAYER   1   ROW     5   COL    12   RATE    -400.356      ET-5
 BOUNDARY     16   LAYER   1   ROW     6   COL    12   RATE    -399.461      ET-6
 BOUNDARY     17   LAYER   1   ROW     7   COL    12   RATE    -300.630      ET-7
 BOUNDARY     18   LAYER   1   ROW     8   COL    12   RATE    -233.670      ET-8
 BOUNDARY     19   LAYER   1   ROW     9   COL    12   RATE    -156.912      ET-9
 BOUNDARY     20   LAYER   1   ROW    10   COL    12   RATE    -49.6083      ET-10
 UBDSV4 SAVING CONSTANT HEADS   ON UNIT   1017 AT TIME STEP      1, STRESS PERIOD      1

 CONSTANT HEADS     PERIOD  1   STEP  1
 BOUNDARY      1   LAYER   1   ROW     1   COL     1   RATE     2655.34      CHD-1
 BOUNDARY      2   LAYER   1   ROW     4   COL     1   RATE     4717.41    
 BOUNDARY      3   LAYER   1   ROW     5   COL     1   RATE     838.728      CHD_GP
 BOUNDARY      4   LAYER   1   ROW     6   COL     1   RATE     4340.95      CHD_GP
 BOUNDARY      5   LAYER   1   ROW    10   COL     1   RATE     1809.64      CHD-10
1
  HEAD             IN LAYER   1 AT END OF TIME STEP   1 IN STRESS PERIOD    1
  ---------------------------------------------------------------------------

           1       2       3       4       5       6       7       8       9      10      11      12      13      14      15
 ...........................................................................................................................
   1   120.00  116.81  115.59  114.88  114.21  113.43  112.50  111.39  110.10  108.64  107.01  105.23  103.80  102.55  101.04
   2   113.68  114.66  114.92  114.68  114.16  113.42  112.49  111.37  110.08  108.58  106.90  105.00  103.59  102.46  101.04
   3   105.18  112.97  114.55  114.61  114.14  113.41  112.48  111.35  110.03  108.49  106.72  104.67  103.30  102.33  101.04
   4   120.00  116.50  115.49  114.88  114.23  113.44  112.48  111.34  109.98  108.40  106.54  104.34  103.01  102.20  101.03
   5   120.00  117.27  115.86  115.02  114.28  113.46  112.48  111.33  109.96  108.34  106.40  104.00  102.73  102.10  101.03
   6   120.00  116.58  115.53  114.90  114.25  113.45  112.49  111.34  109.97  108.34  106.40  103.99  102.72  102.10  101.03
   7   106.83  113.26  114.61  114.64  114.18  113.45  112.50  111.36  110.01  108.42  106.54  104.29  102.97  102.19  101.03
   8   112.72  114.24  114.81  114.70  114.21  113.48  112.53  111.40  110.07  108.53  106.75  104.67  103.30  102.34  101.04
   9   116.31  115.90  115.48  114.97  114.33  113.53  112.57  111.44  110.14  108.64  106.96  105.07  103.65  102.49  101.04
  10   120.00  117.37  116.07  115.21  114.43  113.58  112.60  111.47  110.18  108.72  107.11  105.39  103.93  102.60  101.04
1
  HEAD             IN LAYER   2 AT END OF TIME STEP   1 IN STRESS PERIOD    1
  ---------------------------------------------------------------------------

           1       2       3       4       5       6       7       8       9      10      11      12      13      14      15
 ...........................................................................................................................
   1   116.06  115.51  115.00  114.48  113.86  113.08  112.15  111.05  109.78  108.39  106.90  105.42  104.13  103.10  102.39
   2   114.65  114.81  114.73  114.39  113.83  113.07  112.14  111.03  109.76  108.35  106.84  105.33  104.05  103.05  102.36
   3   113.57  114.42  114.61  114.36  113.82  113.07  112.13  111.02  109.73  108.28  106.73  105.19  103.92  102.96  102.32
   4   115.83  115.40  114.99  114.50  113.87  113.09  112.13  111.00  109.69  108.22  106.63  105.05  103.79  102.87  102.27
   5   116.44  115.80  115.18  114.58  113.91  113.11  112.14  111.00  109.67  108.18  106.56  104.94  103.69  102.82  102.24
   6   115.90  115.44  115.02  114.52  113.89  113.11  112.15  111.00  109.68  108.18  106.56  104.94  103.69  102.82  102.24
   7   113.78  114.49  114.66  114.40  113.87  113.11  112.16  111.03  109.71  108.24  106.64  105.05  103.79  102.88  102.28
   8   114.42  114.71  114.74  114.45  113.90  113.14  112.19  111.06  109.77  108.32  106.76  105.22  103.94  102.98  102.33
   9   115.62  115.43  115.10  114.62  113.98  113.19  112.23  111.10  109.82  108.40  106.89  105.39  104.10  103.08  102.38
  10   116.67  116.06  115.42  114.77  114.05  113.22  112.25  111.13  109.85  108.45  106.97  105.50  104.20  103.14  102.42

 HEAD WILL BE SAVED ON UNIT 1018 AT END OF TIME STEP    1, STRESS PERIOD    1
1
  VOLUME BUDGET FOR ENTIRE MODEL AT END OF TIME STEP    1, STRESS PERIOD   1
  ------------------------------------------------------------------------------

     CUMULATIVE VOLUME      L**3       RATES FOR THIS TIME STEP      L**3/T
     ------------------                 ------------------------

           IN:                                      IN:
           ---                                      ---
         STORAGE(SS) =           0.0000           STORAGE(SS) =           0.0000
         STORAGE(SY) =           0.0000           STORAGE(SY) =           0.0000
    WELLS NEAR RIVER =           0.0000      WELLS NEAR RIVER =           0.0000
               RIVER =           0.0000                 RIVER =           0.0000
           GHB LAKES =        4439.8999             GHB LAKES =        4439.8999
            RECHARGE =        7250.0000              RECHARGE =        7250.0000
             ET SEGS =           0.0000               ET SEGS =           0.0000
      CONSTANT HEADS =       14362.0658        CONSTANT HEADS =       14362.0658

            TOTAL IN =       26051.9656              TOTAL IN =       26051.9656

          OUT:                                     OUT:
          ----                                     ----
         STORAGE(SS) =           0.0000           STORAGE(SS) =           0.0000
         STORAGE(SY) =           0.0000           STORAGE(SY) =           0.0000
    WELLS NEAR RIVER =           0.0000      WELLS NEAR RIVER =           0.0000
               RIVER =        3514.3129                 RIVER =        3514.3129
           GHB LAKES =       18679.0546             GHB LAKES =       18679.0546
            RECHARGE =           0.0000              RECHARGE =           0.0000
             ET SEGS =        3858.6035               ET SEGS =        3858.6035
      CONSTANT HEADS =           0.0000        CONSTANT HEADS =           0.0000

           TOTAL OUT =       26051.9710             TOTAL OUT =       26051.9710

            IN - OUT =      -5.4005E-03              IN - OUT =      -5.4005E-03

 PERCENT DISCREPANCY =          -0.00     PERCENT DISCREPANCY =          -0.00






         TIME SUMMARY AT END OF TIME STEP    1 IN STRESS PERIOD    1
                    SECONDS     MINUTES      HOURS       DAYS        YEARS
                    -----------------------------------------------------------
   TIME STEP LENGTH  86400.      1440.0      24.000     1.00000     2.73785E-03
 STRESS PERIOD TIME  86400.      1440.0      24.000     1.00000     2.73785E-03
         TOTAL TIME  86400.      1440.0      24.000     1.00000     2.73785E-03


 UPDATING STORAGE VALUES
 #iconvert(nodes) is 0:confined, 1:convertible

                 ICONVERT =         1
 #ss(nodes) specific storage

         SPECIFIC STORAGE =  1.000000E-05
 #sy(nodes) specific yield

           SPECIFIC YIELD =  0.200000    
 END UPDATING STORAGE VALUES
 #        k         i         j      flow      var1    var2 var3

 WEL NO.  LAYER   ROW    COL     STRESS RATE  BOUNDARY NAME         VAR1            VAR2            VAR3            
 -------------------------------------------------------------------------------------------------------------------
      1      2      3      4     -0.3000E+05  WELL_1                1.0000           2.000           3.000    
      2      2      8      4      -4200.      WELL_2                 4.000           5.000           6.000    
      3      2      4      6     -10.000                             7.000           8.000           9.000    
      4      2      5      8      -20.00                             17.00           18.00           19.00    
      5      2      2      9      -40.00                             27.00           28.00           29.00    

 REUSING RIVS FROM LAST STRESS PERIOD

 GHB NO.  LAYER   ROW    COL       STAGE         CONDUCTANCE  BOUNDARY NAME         
 -----------------------------------------------------------------------------------
      1      1      3      1      100.00           1502.                      
      2      1      7      1       110.0           1402.      GHB2_UPPER      
      3      1      7      1       85.00           502.0      GHB2_LOWER      

                 RECHARGE =  3.000000E-03

 REUSING EVTS FROM LAST STRESS PERIOD
 #L   R   C  shead  ehead  name

 CHD NO.  LAYER   ROW    COL       SHEAD           EHEAD      BOUNDARY NAME         
 -----------------------------------------------------------------------------------
      1      1      1      1       120.0           120.0      CHD-1           
      2      1      4      1       120.0           120.0                      
      3      1      5      1       120.0           120.0      CHD_GP          
      4      1      6      1       120.0           120.0      CHD_GP          
      5      1     10      1       120.0           120.0      CHD-10          
WEL   no.    1 value from time series:  -30000.     for time: 1.0000     to  1.200    
WEL   no.    2 value from time series:  -2200.0     for time: 1.0000     to  1.200    
RIV   no.    1 value from time series:   101.20     for time: 1.0000     to  1.200    
RIV   no.    2 value from time series:   101.20     for time: 1.0000     to  1.200    
RIV   no.    3 value from time series:   101.20     for time: 1.0000     to  1.200    
RIV   no.    4 value from time series:   101.20     for time: 1.0000     to  1.200    
RIV   no.    5 value from time series:   101.20     for time: 1.0000     to  1.200    
RIV   no.    6 value from time series:   101.20     for time: 1.0000     to  1.200    
RIV   no.    7 value from time series:   101.20     for time: 1.0000     to  1.200    
RIV   no.    8 value from time series:   101.20     for time: 1.0000     to  1.200    
RIV   no.    9 value from time series:   101.20     for time: 1.0000     to  1.200    
RIV   no.   10 value from time series:   101.20     for time: 1.0000     to  1.200    
EVT   no.    1 value from time series:   683.44     for time: 1.0000     to  1.200    
EVT   no.    2 value from time series:   1366.9     for time: 1.0000     to  1.200    
EVT   no.    3 value from time series:   2050.3     for time: 1.0000     to  1.200    
EVT   no.    4 value from time series:   2733.8     for time: 1.0000     to  1.200    
EVT   no.   10 value from time series:   341.72     for time: 1.0000     to  1.200    
EVT   no.   11 value from time series:   683.44     for time: 1.0000     to  1.200    
EVT   no.   12 value from time series:   1366.9     for time: 1.0000     to  1.200    
EVT   no.   13 value from time series:   2050.3     for time: 1.0000     to  1.200    
EVT   no.   14 value from time series:   2733.8     for time: 1.0000     to  1.200    
EVT   no.   20 value from time series:   341.72     for time: 1.0000     to  1.200    
WEL   no.    1 value from time series:  -30000.     for time: 1.0000     to  1.200    
WEL   no.    2 value from time series:  -2200.0     for time: 1.0000     to  1.200    
RIV   no.    1 value from time series:   101.20     for time: 1.0000     to  1.200    
RIV   no.    2 value from time series:   101.20     for time: 1.0000     to  1.200    
RIV   no.    3 value from time series:   101.20     for time: 1.0000     to  1.200    
RIV   no.    4 value from time series:   101.20     for time: 1.0000     to  1.200    
RIV   no.    5 value from time series:   101.20     for time: 1.0000     to  1.200    
RIV   no.    6 value from time series:   101.20     for time: 1.0000     to  1.200    
RIV   no.    7 value from time series:   101.20     for time: 1.0000     to  1.200    
RIV   no.    8 value from time series:   101.20     for time: 1.0000     to  1.200    
RIV   no.    9 value from time series:   101.20     for time: 1.0000     to  1.200    
RIV   no.   10 value from time series:   101.20     for time: 1.0000     to  1.200    
EVT   no.    1 value from time series:   683.44     for time: 1.0000     to  1.200    
EVT   no.    2 value from time series:   1366.9     for time: 1.0000     to  1.200    
EVT   no.    3 value from time series:   2050.3     for time: 1.0000     to  1.200    
EVT   no.    4 value from time series:   2733.8     for time: 1.0000     to  1.200    
EVT   no.   10 value from time series:   341.72     for time: 1.0000     to  1.200    
EVT   no.   11 value from time series:   683.44     for time: 1.0000     to  1.200    
EVT   no.   12 value from time series:   1366.9     for time: 1.0000     to  1.200    
EVT   no.   13 value from time series:   2050.3     for time: 1.0000     to  1.200    
EVT   no.   14 value from time series:   2733.8     for time: 1.0000     to  1.200    
EVT   no.   20 value from time series:   341.72     for time: 1.0000     to  1.200    

 OUTPUT CONTROL FOR STRESS PERIOD    2   TIME STEP    1
    PRINT BUDGET
    PRINT HEAD
    PRINT HEAD FOR ALL LAYERS
    SAVE BUDGET
    SAVE HEAD
    SAVE HEAD FOR ALL LAYERS
 UBDSV1 SAVING      STORAGE(SS) ON UNIT   1017 AT TIME STEP      1, STRESS PERIOD      2
 UBDSV1 SAVING      STORAGE(SY) ON UNIT   1017 AT TIME STEP      1, STRESS PERIOD      2
 UBDSV1 SAVING FLOW RIGHT FACE  ON UNIT   1017 AT TIME STEP      1, STRESS PERIOD      2
 UBDSV1 SAVING FLOW FRONT FACE  ON UNIT   1017 AT TIME STEP      1, STRESS PERIOD      2
 UBDSV1 SAVING FLOW LOWER FACE  ON UNIT   1017 AT TIME STEP      1, STRESS PERIOD      2
 UBDSV4 SAVING WELLS NEAR RIVER ON UNIT   1017 AT TIME STEP      1, STRESS PERIOD      2

 WELLS NEAR RIVER   PERIOD  2   STEP  1
 BOUNDARY      1   LAYER   2   ROW     3   COL     4   RATE    -30000.0      WELL_1
 BOUNDARY      2   LAYER   2   ROW     8   COL     4   RATE    -2200.00      WELL_2
 BOUNDARY      3   LAYER   2   ROW     4   COL     6   RATE   -10.00000    
 BOUNDARY      4   LAYER   2   ROW     5   COL     8   RATE    -20.0000    
 BOUNDARY      5   LAYER   2   ROW     2   COL     9   RATE    -40.0000    
 UBDSV4 SAVING RIVER            ON UNIT   1017 AT TIME STEP      1, STRESS PERIOD      2

 RIVER              PERIOD  2   STEP  1
 BOUNDARY      1   LAYER   1   ROW     1   COL    15   RATE     1401.03    
 BOUNDARY      2   LAYER   1   ROW     2   COL    15   RATE     1418.91      RIV2
 BOUNDARY      3   LAYER   1   ROW     3   COL    15   RATE     1445.77      RIV3
 BOUNDARY      4   LAYER   1   ROW     4   COL    15   RATE     1473.73    
 BOUNDARY      5   LAYER   1   ROW     5   COL    15   RATE     1495.39    
 BOUNDARY      6   LAYER   1   ROW     6   COL    15   RATE     1496.02    
 BOUNDARY      7   LAYER   1   ROW     7   COL    15   RATE     1475.17      RIVX
 BOUNDARY      8   LAYER   1   ROW     8   COL    15   RATE     1444.18      RIVX
 BOUNDARY      9   LAYER   1   ROW     9   COL    15   RATE     1411.80      RIVX
 BOUNDARY     10   LAYER   1   ROW    10   COL    15   RATE     1388.72    

 GHB LAKES          PERIOD  2   STEP  1
 BOUNDARY      1   LAYER   1   ROW     3   COL     1   RATE    -7783.29    
 BOUNDARY      2   LAYER   1   ROW     7   COL     1   RATE     4438.90      GHB2_UPPER
 BOUNDARY      3   LAYER   1   ROW     7   COL     1   RATE    -10960.6      GHB2_LOWER
 UBDSV4 SAVING RECHARGE         ON UNIT   1017 AT TIME STEP      1, STRESS PERIOD      2

 RECHARGE           PERIOD  2   STEP  1
 BOUNDARY      2   LAYER   1   ROW     1   COL     2   RATE     750.000    
 BOUNDARY      3   LAYER   1   ROW     1   COL     3   RATE     750.000    
 BOUNDARY      4   LAYER   1   ROW     1   COL     4   RATE     750.000    
 BOUNDARY      5   LAYER   1   ROW     1   COL     5   RATE     750.000    
 BOUNDARY      6   LAYER   1   ROW     1   COL     6   RATE     750.000    
 BOUNDARY      7   LAYER   1   ROW     1   COL     7   RATE     750.000    
 BOUNDARY      8   LAYER   1   ROW     1   COL     8   RATE     750.000    
 BOUNDARY      9   LAYER   1   ROW     1   COL     9   RATE     750.000    
 BOUNDARY     10   LAYER   1   ROW     1   COL    10   RATE     750.000    
 BOUNDARY     11   LAYER   1   ROW     1   COL    11   RATE     750.000    
 BOUNDARY     12   LAYER   1   ROW     1   COL    12   RATE     750.000    
 BOUNDARY     13   LAYER   1   ROW     1   COL    13   RATE     750.000    
 BOUNDARY     14   LAYER   1   ROW     1   COL    14   RATE     750.000    
 BOUNDARY     15   LAYER   1   ROW     1   COL    15   RATE     750.000    
 BOUNDARY     16   LAYER   1   ROW     2   COL     1   RATE     750.000    
 BOUNDARY     17   LAYER   1   ROW     2   COL     2   RATE     750.000    
 BOUNDARY     18   LAYER   1   ROW     2   COL     3   RATE     750.000    
 BOUNDARY     19   LAYER   1   ROW     2   COL     4   RATE     750.000    
 BOUNDARY     20   LAYER   1   ROW     2   COL     5   RATE     750.000    
 BOUNDARY     21   LAYER   1   ROW     2   COL     6   RATE     750.000    
 BOUNDARY     22   LAYER   1   ROW     2   COL     7   RATE     750.000    
 BOUNDARY     23   LAYER   1   ROW     2   COL     8   RATE     750.000    
 BOUNDARY     24   LAYER   1   ROW     2   COL     9   RATE     750.000    
 BOUNDARY     25   LAYER   1   ROW     2   COL    10   RATE     750.000    
 BOUNDARY     26   LAYER   1   ROW     2   COL    11   RATE     750.000    
 BOUNDARY     27   LAYER   1   ROW     2   COL    12   RATE     750.000    
 BOUNDARY     28   LAYER   1   ROW     2   COL    13   RATE     750.000    
 BOUNDARY     29   LAYER   1   ROW     2   COL    14   RATE     750.000    
 BOUNDARY     30   LAYER   1   ROW     2   COL    15   RATE     750.000    
 BOUNDARY     31   LAYER   1   ROW     3   COL     1   RATE     750.000    
 BOUNDARY     32   LAYER   1   ROW     3   COL     2   RATE     750.000    
 BOUNDARY     33   LAYER   1   ROW     3   COL     3   RATE     750.000    
 BOUNDARY     34   LAYER   1   ROW     3   COL     4   RATE     750.000    
 BOUNDARY     35   LAYER   1   ROW     3   COL     5   RATE     750.000    
 BOUNDARY     36   LAYER   1   ROW     3   COL     6   RATE     750.000    
 BOUNDARY     37   LAYER   1   ROW     3   COL     7   RATE     750.000    
 BOUNDARY     38   LAYER   1   ROW     3   COL     8   RATE     750.000    
 BOUNDARY     39   LAYER   1   ROW     3   COL     9   RATE     750.000    
 BOUNDARY     40   LAYER   1   ROW     3   COL    10   RATE     750.000    
 BOUNDARY     41   LAYER   1   ROW     3   COL    11   RATE     750.000    
 BOUNDARY     42   LAYER   1   ROW     3   COL    12   RATE     750.000    
 BOUNDARY     43   LAYER   1   ROW     3   COL    13   RATE     750.000    
 BOUNDARY     44   LAYER   1   ROW     3   COL    14   RATE     750.000    
 BOUNDARY     45   LAYER   1   ROW     3   COL    15   RATE     750.000    
 BOUNDARY     47   LAYER   1   ROW     4   COL     2   RATE     750.000    
 BOUNDARY     48   LAYER   1   ROW     4   COL     3   RATE     750.000    
 BOUNDARY     49   LAYER   1   ROW     4   COL     4   RATE     750.000    
 BOUNDARY     50   LAYER   1   ROW     4   COL     5   RATE     750.000    
 BOUNDARY     51   LAYER   1   ROW     4   COL     6   RATE     750.000    
 BOUNDARY     52   LAYER   1   ROW     4   COL     7   RATE     750.000    
 BOUNDARY     53   LAYER   1   ROW     4   COL     8   RATE     750.000    
 BOUNDARY     54   LAYER   1   ROW     4   COL     9   RATE     750.000    
 BOUNDARY     55   LAYER   1   ROW     4   COL    10   RATE     750.000    
 BOUNDARY     56   LAYER   1   ROW     4   COL    11   RATE     750.000    
 BOUNDARY     57   LAYER   1   ROW     4   COL    12   RATE     750.000    
 BOUNDARY     58   LAYER   1   ROW     4   COL    13   RATE     750.000    
 BOUNDARY     59   LAYER   1   ROW     4   COL    14   RATE     750.000    
 BOUNDARY     60   LAYER   1   ROW     4   COL    15   RATE     750.000    
 BOUNDARY     62   LAYER   1   ROW     5   COL     2   RATE     750.000    
 BOUNDARY     63   LAYER   1   ROW     5   COL     3   RATE     750.000    
 BOUNDARY     64   LAYER   1   ROW     5   COL     4   RATE     750.000    
 BOUNDARY     65   LAYER   1   ROW     5   COL     5   RATE     750.000    
 BOUNDARY     66   LAYER   1   ROW     5   COL     6   RATE     750.000    
 BOUNDARY     67   LAYER   1   ROW     5   COL     7   RATE     750.000    
 BOUNDARY     68   LAYER   1   ROW     5   COL     8   RATE     750.000    
 BOUNDARY     69   LAYER   1   ROW     5   COL     9   RATE     750.000    
 BOUNDARY     70   LAYER   1   ROW     5   COL    10   RATE     750.000    
 BOUNDARY     71   LAYER   1   ROW     5   COL    11   RATE     750.000    
 BOUNDARY     72   LAYER   1   ROW     5   COL    12   RATE     750.000    
 BOUNDARY     73   LAYER   1   ROW     5   COL    13   RATE     750.000    
 BOUNDARY     74   LAYER   1   ROW     5   COL    14   RATE     750.000    
 BOUNDARY     75   LAYER   1   ROW     5   COL    15   RATE     750.000    
 BOUNDARY     77   LAYER   1   ROW     6   COL     2   RATE     750.000    
 BOUNDARY     78   LAYER   1   ROW     6   COL     3   RATE     750.000    
 BOUNDARY     79   LAYER   1   ROW     6   COL     4   RATE     750.000    
 BOUNDARY     80   LAYER   1   ROW     6   COL     5   RATE     750.000    
 BOUNDARY     81   LAYER   1   ROW     6   COL     6   RATE     750.000    
 BOUNDARY     82   LAYER   1   ROW     6   COL     7   RATE     750.000    
 BOUNDARY     83   LAYER   1   ROW     6   COL     8   RATE     750.000    
 BOUNDARY     84   LAYER   1   ROW     6   COL     9   RATE     750.000    
 BOUNDARY     85   LAYER   1   ROW     6   COL    10   RATE     750.000    
 BOUNDARY     86   LAYER   1   ROW     6   COL    11   RATE     750.000    
 BOUNDARY     87   LAYER   1   ROW     6   COL    12   RATE     750.000    
 BOUNDARY     88   LAYER   1   ROW     6   COL    13   RATE     750.000    
 BOUNDARY     89   LAYER   1   ROW     6   COL    14   RATE     750.000    
 BOUNDARY     90   LAYER   1   ROW     6   COL    15   RATE     750.000    
 BOUNDARY     91   LAYER   1   ROW     7   COL     1   RATE     750.000    
 BOUNDARY     92   LAYER   1   ROW     7   COL     2   RATE     750.000    
 BOUNDARY     93   LAYER   1   ROW     7   COL     3   RATE     750.000    
 BOUNDARY     94   LAYER   1   ROW     7   COL     4   RATE     750.000    
 BOUNDARY     95   LAYER   1   ROW     7   COL     5   RATE     750.000    
 BOUNDARY     96   LAYER   1   ROW     7   COL     6   RATE     750.000    
 BOUNDARY     97   LAYER   1   ROW     7   COL     7   RATE     750.000    
 BOUNDARY     98   LAYER   1   ROW     7   COL     8   RATE     750.000    
 BOUNDARY     99   LAYER   1   ROW     7   COL     9   RATE     750.000    
 BOUNDARY    100   LAYER   1   ROW     7   COL    10   RATE     750.000    
 BOUNDARY    101   LAYER   1   ROW     7   COL    11   RATE     750.000    
 BOUNDARY    102   LAYER   1   ROW     7   COL    12   RATE     750.000    
 BOUNDARY    103   LAYER   1   ROW     7   COL    13   RATE     750.000    
 BOUNDARY    104   LAYER   1   ROW     7   COL    14   RATE     750.000    
 BOUNDARY    105   LAYER   1   ROW     7   COL    15   RATE     750.000    
 BOUNDARY    106   LAYER   1   ROW     8   COL     1   RATE     750.000    
 BOUNDARY    107   LAYER   1   ROW     8   COL     2   RATE     750.000    
 BOUNDARY    108   LAYER   1   ROW     8   COL     3   RATE     750.000    
 BOUNDARY    109   LAYER   1   ROW     8   COL     4   RATE     750.000    
 BOUNDARY    110   LAYER   1   ROW     8   COL     5   RATE     750.000    
 BOUNDARY    111   LAYER   1   ROW     8   COL     6   RATE     750.000    
 BOUNDARY    112   LAYER   1   ROW     8   COL     7   RATE     750.000    
 BOUNDARY    113   LAYER   1   ROW     8   COL     8   RATE     750.000    
 BOUNDARY    114   LAYER   1   ROW     8   COL     9   RATE     750.000    
 BOUNDARY    115   LAYER   1   ROW     8   COL    10   RATE     750.000    
 BOUNDARY    116   LAYER   1   ROW     8   COL    11   RATE     750.000    
 BOUNDARY    117   LAYER   1   ROW     8   COL    12   RATE     750.000    
 BOUNDARY    118   LAYER   1   ROW     8   COL    13   RATE     750.000    
 BOUNDARY    119   LAYER   1   ROW     8   COL    14   RATE     750.000    
 BOUNDARY    120   LAYER   1   ROW     8   COL    15   RATE     750.000    
 BOUNDARY    121   LAYER   1   ROW     9   COL     1   RATE     750.000    
 BOUNDARY    122   LAYER   1   ROW     9   COL     2   RATE     750.000    
 BOUNDARY    123   LAYER   1   ROW     9   COL     3   RATE     750.000    
 BOUNDARY    124   LAYER   1   ROW     9   COL     4   RATE     750.000    
 BOUNDARY    125   LAYER   1   ROW     9   COL     5   RATE     750.000    
 BOUNDARY    126   LAYER   1   ROW     9   COL     6   RATE     750.000    
 BOUNDARY    127   LAYER   1   ROW     9   COL     7   RATE     750.000    
 BOUNDARY    128   LAYER   1   ROW     9   COL     8   RATE     750.000    
 BOUNDARY    129   LAYER   1   ROW     9   COL     9   RATE     750.000    
 BOUNDARY    130   LAYER   1   ROW     9   COL    10   RATE     750.000    
 BOUNDARY    131   LAYER   1   ROW     9   COL    11   RATE     750.000    
 BOUNDARY    132   LAYER   1   ROW     9   COL    12   RATE     750.000    
 BOUNDARY    133   LAYER   1   ROW     9   COL    13   RATE     750.000    
 BOUNDARY    134   LAYER   1   ROW     9   COL    14   RATE     750.000    
 BOUNDARY    135   LAYER   1   ROW     9   COL    15   RATE     750.000    
 BOUNDARY    137   LAYER   1   ROW    10   COL     2   RATE     750.000    
 BOUNDARY    138   LAYER   1   ROW    10   COL     3   RATE     750.000    
 BOUNDARY    139   LAYER   1   ROW    10   COL     4   RATE     750.000    
 BOUNDARY    140   LAYER   1   ROW    10   COL     5   RATE     750.000    
 BOUNDARY    141   LAYER   1   ROW    10   COL     6   RATE     750.000    
 BOUNDARY    142   LAYER   1   ROW    10   COL     7   RATE     750.000    
 BOUNDARY    143   LAYER   1   ROW    10   COL     8   RATE     750.000    
 BOUNDARY    144   LAYER   1   ROW    10   COL     9   RATE     750.000    
 BOUNDARY    145   LAYER   1   ROW    10   COL    10   RATE     750.000    
 BOUNDARY    146   LAYER   1   ROW    10   COL    11   RATE     750.000    
 BOUNDARY    147   LAYER   1   ROW    10   COL    12   RATE     750.000    
 BOUNDARY    148   LAYER   1   ROW    10   COL    13   RATE     750.000    
 BOUNDARY    149   LAYER   1   ROW    10   COL    14   RATE     750.000    
 BOUNDARY    150   LAYER   1   ROW    10   COL    15   RATE     750.000    
 UBDSV4 SAVING ET SEGS          ON UNIT   1017 AT TIME STEP      1, STRESS PERIOD      2

 ET SEGS            PERIOD  2   STEP  1
 BOUNDARY      1   LAYER   1   ROW     1   COL    13   RATE    -51.9681      ET-1
 BOUNDARY      2   LAYER   1   ROW     2   COL    13   RATE    -98.2070      ET-2
 BOUNDARY      3   LAYER   1   ROW     3   COL    13   RATE    -135.597      ET-3
 BOUNDARY      4   LAYER   1   ROW     4   COL    13   RATE    -164.671      ET-4
 BOUNDARY      5   LAYER   1   ROW     5   COL    13   RATE    -273.161      ET-5
 BOUNDARY      6   LAYER   1   ROW     6   COL    13   RATE    -272.299      ET-6
 BOUNDARY      7   LAYER   1   ROW     7   COL    13   RATE    -208.320      ET-7
 BOUNDARY      8   LAYER   1   ROW     8   COL    13   RATE    -165.275      ET-8
 BOUNDARY      9   LAYER   1   ROW     9   COL    13   RATE    -109.693      ET-9
 BOUNDARY     10   LAYER   1   ROW    10   COL    13   RATE    -26.9202      ET-10
 BOUNDARY     11   LAYER   1   ROW     1   COL    12   RATE    -79.0214      ET-1
 BOUNDARY     12   LAYER   1   ROW     2   COL    12   RATE    -136.894      ET-2
 BOUNDARY     13   LAYER   1   ROW     3   COL    12   RATE    -191.858      ET-3
 BOUNDARY     14   LAYER   1   ROW     4   COL    12   RATE    -237.369      ET-4
 BOUNDARY     15   LAYER   1   ROW     5   COL    12   RATE    -400.915      ET-5
 BOUNDARY     16   LAYER   1   ROW     6   COL    12   RATE    -400.020      ET-6
 BOUNDARY     17   LAYER   1   ROW     7   COL    12   RATE    -301.022      ET-7
 BOUNDARY     18   LAYER   1   ROW     8   COL    12   RATE    -233.950      ET-8
 BOUNDARY     19   LAYER   1   ROW     9   COL    12   RATE    -157.472      ET-9
 BOUNDARY     20   LAYER   1   ROW    10   COL    12   RATE    -43.1817      ET-10
 UBDSV4 SAVING CONSTANT HEADS   ON UNIT   1017 AT TIME STEP      1, STRESS PERIOD      2

 CONSTANT HEADS     PERIOD  2   STEP  1
 BOUNDARY      1   LAYER   1   ROW     1   COL     1   RATE     2652.43      CHD-1
 BOUNDARY      2   LAYER   1   ROW     4   COL     1   RATE     4714.79    
 BOUNDARY      3   LAYER   1   ROW     5   COL     1   RATE     837.228      CHD_GP
 BOUNDARY      4   LAYER   1   ROW     6   COL     1   RATE     4338.32      CHD_GP
 BOUNDARY      5   LAYER   1   ROW    10   COL     1   RATE     1806.65      CHD-10
1
  HEAD             IN LAYER   1 AT END OF TIME STEP   1 IN STRESS PERIOD    2
  ---------------------------------------------------------------------------

           1       2       3       4       5       6       7       8       9      10      11      12      13      14      15
 ...........................................................................................................................
   1   120.00  116.82  115.59  114.89  114.22  113.44  112.50  111.39  110.11  108.65  107.01  105.23  103.80  102.55  101.06
   2   113.69  114.67  114.92  114.69  114.16  113.42  112.49  111.38  110.08  108.59  106.90  105.00  103.59  102.47  101.06
   3   105.18  112.98  114.56  114.61  114.15  113.42  112.48  111.36  110.04  108.50  106.73  104.68  103.31  102.34  101.06
   4   120.00  116.51  115.49  114.88  114.23  113.44  112.49  111.34  109.99  108.41  106.55  104.34  103.01  102.21  101.05
   5   120.00  117.27  115.87  115.03  114.28  113.46  112.49  111.33  109.96  108.35  106.41  104.01  102.73  102.10  101.05
   6   120.00  116.59  115.54  114.91  114.25  113.46  112.50  111.34  109.97  108.35  106.41  104.00  102.72  102.10  101.05
   7   106.83  113.26  114.62  114.65  114.19  113.45  112.51  111.37  110.01  108.42  106.55  104.30  102.98  102.20  101.05
   8   112.73  114.25  114.81  114.71  114.22  113.48  112.54  111.41  110.08  108.54  106.75  104.68  103.31  102.35  101.06
   9   116.32  115.90  115.48  114.98  114.33  113.54  112.58  111.45  110.14  108.65  106.96  105.07  103.66  102.50  101.06
  10   120.00  117.38  116.07  115.21  114.43  113.59  112.61  111.48  110.18  108.72  107.11  105.40  103.94  102.61  101.06
1
  HEAD             IN LAYER   2 AT END OF TIME STEP   1 IN STRESS PERIOD    2
  ---------------------------------------------------------------------------

           1       2       3       4       5       6       7       8       9      10      11      12      13      14      15
 ...........................................................................................................................
   1   116.06  115.51  114.99  114.39  113.85  113.08  112.15  111.05  109.78  108.39  106.90  105.42  104.13  103.10  102.39
   2   114.65  114.80  114.56  112.50  113.66  113.06  112.14  111.03  109.71  108.34  106.84  105.33  104.05  103.05  102.37
   3   113.56  114.33  112.72   76.45  111.93  112.99  112.13  111.02  109.72  108.28  106.73  105.19  103.92  102.96  102.32
   4   115.83  115.38  114.82  112.61  113.71  113.07  112.13  111.00  109.69  108.22  106.63  105.05  103.79  102.87  102.27
   5   116.44  115.80  115.17  114.50  113.90  113.10  112.14  110.97  109.67  108.18  106.56  104.94  103.69  102.82  102.24
   6   115.90  115.44  115.01  114.51  113.89  113.11  112.15  111.00  109.68  108.18  106.56  104.94  103.69  102.82  102.24
   7   113.78  114.49  114.64  114.26  113.85  113.11  112.16  111.03  109.71  108.24  106.64  105.05  103.79  102.88  102.28
   8   114.42  114.71  114.60  111.67  113.76  113.13  112.19  111.06  109.77  108.32  106.76  105.22  103.94  102.98  102.33
   9   115.62  115.43  115.09  114.48  113.97  113.18  112.23  111.10  109.82  108.40  106.89  105.39  104.10  103.08  102.38
  10   116.67  116.06  115.42  114.76  114.05  113.22  112.25  111.13  109.85  108.45  106.97  105.50  104.20  103.14  102.42

 HEAD WILL BE SAVED ON UNIT 1018 AT END OF TIME STEP    1, STRESS PERIOD    2
1
  VOLUME BUDGET FOR ENTIRE MODEL AT END OF TIME STEP    1, STRESS PERIOD   2
  ------------------------------------------------------------------------------

     CUMULATIVE VOLUME      L**3       RATES FOR THIS TIME STEP      L**3/T
     ------------------                 ------------------------

           IN:                                      IN:
           ---                                      ---
         STORAGE(SS) =        6201.3334           STORAGE(SS) =       31006.6668
         STORAGE(SY) =          48.4134           STORAGE(SY) =         242.0668
    WELLS NEAR RIVER =           0.0000      WELLS NEAR RIVER =           0.0000
               RIVER =        2890.1405                 RIVER =       14450.7023
           GHB LAKES =        5327.6800             GHB LAKES =        4438.9009
            RECHARGE =       29000.0000              RECHARGE =      108750.0000
             ET SEGS =           0.0000               ET SEGS =           0.0000
      CONSTANT HEADS =       17231.9518        CONSTANT HEADS =       14349.4301

            TOTAL IN =       60699.5190              TOTAL IN =      173237.7669

          OUT:                                     OUT:
          ----                                     ----
         STORAGE(SS) =           2.5750           STORAGE(SS) =          12.8748
         STORAGE(SY) =       23704.6360           STORAGE(SY) =      118523.1802
[...]
 BOUNDARY      9   LAYER   1   ROW     9   COL    15   RATE    -10221.4      RIVX
 BOUNDARY     10   LAYER   1   ROW    10   COL    15   RATE    -10244.4    

 GHB LAKES          PERIOD  6   STEP 10
 BOUNDARY      1   LAYER   1   ROW     3   COL     1   RATE    -8052.58    
 BOUNDARY      2   LAYER   1   ROW     7   COL     1   RATE     4211.54      GHB2_UPPER
 BOUNDARY      3   LAYER   1   ROW     7   COL     1   RATE    -11065.1      GHB2_LOWER
 UBDSV4 SAVING RECHARGE         ON UNIT   1017 AT TIME STEP     10, STRESS PERIOD      6

 RECHARGE           PERIOD  6   STEP 10
 BOUNDARY      2   LAYER   1   ROW     1   COL     2   RATE     750.000    
 BOUNDARY      3   LAYER   1   ROW     1   COL     3   RATE     750.000    
 BOUNDARY      4   LAYER   1   ROW     1   COL     4   RATE     750.000    
 BOUNDARY      5   LAYER   1   ROW     1   COL     5   RATE     750.000    
 BOUNDARY      6   LAYER   1   ROW     1   COL     6   RATE     750.000    
 BOUNDARY      7   LAYER   1   ROW     1   COL     7   RATE     750.000    
 BOUNDARY      8   LAYER   1   ROW     1   COL     8   RATE     750.000    
 BOUNDARY      9   LAYER   1   ROW     1   COL     9   RATE     750.000    
 BOUNDARY     10   LAYER   1   ROW     1   COL    10   RATE     750.000    
 BOUNDARY     11   LAYER   1   ROW     1   COL    11   RATE     750.000    
 BOUNDARY     12   LAYER   1   ROW     1   COL    12   RATE     750.000    
 BOUNDARY     13   LAYER   1   ROW     1   COL    13   RATE     750.000    
 BOUNDARY     14   LAYER   1   ROW     1   COL    14   RATE     750.000    
 BOUNDARY     15   LAYER   1   ROW     1   COL    15   RATE     750.000    
 BOUNDARY     16   LAYER   1   ROW     2   COL     1   RATE     750.000    
 BOUNDARY     17   LAYER   1   ROW     2   COL     2   RATE     750.000    
 BOUNDARY     18   LAYER   1   ROW     2   COL     3   RATE     750.000    
 BOUNDARY     19   LAYER   1   ROW     2   COL     4   RATE     750.000    
 BOUNDARY     20   LAYER   1   ROW     2   COL     5   RATE     750.000    
 BOUNDARY     21   LAYER   1   ROW     2   COL     6   RATE     750.000    
 BOUNDARY     22   LAYER   1   ROW     2   COL     7   RATE     750.000    
 BOUNDARY     23   LAYER   1   ROW     2   COL     8   RATE     750.000    
 BOUNDARY     24   LAYER   1   ROW     2   COL     9   RATE     750.000    
 BOUNDARY     25   LAYER   1   ROW     2   COL    10   RATE     750.000    
 BOUNDARY     26   LAYER   1   ROW     2   COL    11   RATE     750.000    
 BOUNDARY     27   LAYER   1   ROW     2   COL    12   RATE     750.000    
 BOUNDARY     28   LAYER   1   ROW     2   COL    13   RATE     750.000    
 BOUNDARY     29   LAYER   1   ROW     2   COL    14   RATE     750.000    
 BOUNDARY     30   LAYER   1   ROW     2   COL    15   RATE     750.000    
 BOUNDARY     31   LAYER   1   ROW     3   COL     1   RATE     750.000    
 BOUNDARY     32   LAYER   1   ROW     3   COL     2   RATE     750.000    
 BOUNDARY     33   LAYER   1   ROW     3   COL     3   RATE     750.000    
 BOUNDARY     34   LAYER   1   ROW     3   COL     4   RATE     750.000    
 BOUNDARY     35   LAYER   1   ROW     3   COL     5   RATE     750.000    
 BOUNDARY     36   LAYER   1   ROW     3   COL     6   RATE     750.000    
 BOUNDARY     37   LAYER   1   ROW     3   COL     7   RATE     750.000    
 BOUNDARY     38   LAYER   1   ROW     3   COL     8   RATE     750.000    
 BOUNDARY     39   LAYER   1   ROW     3   COL     9   RATE     750.000    
 BOUNDARY     40   LAYER   1   ROW     3   COL    10   RATE     750.000    
 BOUNDARY     41   LAYER   1   ROW     3   COL    11   RATE     750.000    
 BOUNDARY     42   LAYER   1   ROW     3   COL    12   RATE     750.000    
 BOUNDARY     43   LAYER   1   ROW     3   COL    13   RATE     750.000    
 BOUNDARY     44   LAYER   1   ROW     3   COL    14   RATE     750.000    
 BOUNDARY     45   LAYER   1   ROW     3   COL    15   RATE     750.000    
 BOUNDARY     47   LAYER   1   ROW     4   COL     2   RATE     750.000    
 BOUNDARY     48   LAYER   1   ROW     4   COL     3   RATE     750.000    
 BOUNDARY     49   LAYER   1   ROW     4   COL     4   RATE     750.000    
 BOUNDARY     50   LAYER   1   ROW     4   COL     5   RATE     750.000    
 BOUNDARY     51   LAYER   1   ROW     4   COL     6   RATE     750.000    
 BOUNDARY     52   LAYER   1   ROW     4   COL     7   RATE     750.000    
 BOUNDARY     53   LAYER   1   ROW     4   COL     8   RATE     750.000    
 BOUNDARY     54   LAYER   1   ROW     4   COL     9   RATE     750.000    
 BOUNDARY     55   LAYER   1   ROW     4   COL    10   RATE     750.000    
 BOUNDARY     56   LAYER   1   ROW     4   COL    11   RATE     750.000    
 BOUNDARY     57   LAYER   1   ROW     4   COL    12   RATE     750.000    
 BOUNDARY     58   LAYER   1   ROW     4   COL    13   RATE     750.000    
 BOUNDARY     59   LAYER   1   ROW     4   COL    14   RATE     750.000    
 BOUNDARY     60   LAYER   1   ROW     4   COL    15   RATE     750.000    
 BOUNDARY     62   LAYER   1   ROW     5   COL     2   RATE     750.000    
 BOUNDARY     63   LAYER   1   ROW     5   COL     3   RATE     750.000    
 BOUNDARY     64   LAYER   1   ROW     5   COL     4   RATE     750.000    
 BOUNDARY     65   LAYER   1   ROW     5   COL     5   RATE     750.000    
 BOUNDARY     66   LAYER   1   ROW     5   COL     6   RATE     750.000    
 BOUNDARY     67   LAYER   1   ROW     5   COL     7   RATE     750.000    
 BOUNDARY     68   LAYER   1   ROW     5   COL     8   RATE     750.000    
 BOUNDARY     69   LAYER   1   ROW     5   COL     9   RATE     750.000    
 BOUNDARY     70   LAYER   1   ROW     5   COL    10   RATE     750.000    
 BOUNDARY     71   LAYER   1   ROW     5   COL    11   RATE     750.000    
 BOUNDARY     72   LAYER   1   ROW     5   COL    12   RATE     750.000    
 BOUNDARY     73   LAYER   1   ROW     5   COL    13   RATE     750.000    
 BOUNDARY     74   LAYER   1   ROW     5   COL    14   RATE     750.000    
 BOUNDARY     75   LAYER   1   ROW     5   COL    15   RATE     750.000    
 BOUNDARY     77   LAYER   1   ROW     6   COL     2   RATE     750.000    
 BOUNDARY     78   LAYER   1   ROW     6   COL     3   RATE     750.000    
 BOUNDARY     79   LAYER   1   ROW     6   COL     4   RATE     750.000    
 BOUNDARY     80   LAYER   1   ROW     6   COL     5   RATE     750.000    
 BOUNDARY     81   LAYER   1   ROW     6   COL     6   RATE     750.000    
 BOUNDARY     82   LAYER   1   ROW     6   COL     7   RATE     750.000    
 BOUNDARY     83   LAYER   1   ROW     6   COL     8   RATE     750.000    
 BOUNDARY     84   LAYER   1   ROW     6   COL     9   RATE     750.000    
 BOUNDARY     85   LAYER   1   ROW     6   COL    10   RATE     750.000    
 BOUNDARY     86   LAYER   1   ROW     6   COL    11   RATE     750.000    
 BOUNDARY     87   LAYER   1   ROW     6   COL    12   RATE     750.000    
 BOUNDARY     88   LAYER   1   ROW     6   COL    13   RATE     750.000    
 BOUNDARY     89   LAYER   1   ROW     6   COL    14   RATE     750.000    
 BOUNDARY     90   LAYER   1   ROW     6   COL    15   RATE     750.000    
 BOUNDARY     91   LAYER   1   ROW     7   COL     1   RATE     750.000    
 BOUNDARY     92   LAYER   1   ROW     7   COL     2   RATE     750.000    
 BOUNDARY     93   LAYER   1   ROW     7   COL     3   RATE     750.000    
 BOUNDARY     94   LAYER   1   ROW     7   COL     4   RATE     750.000    
 BOUNDARY     95   LAYER   1   ROW     7   COL     5   RATE     750.000    
 BOUNDARY     96   LAYER   1   ROW     7   COL     6   RATE     750.000    
 BOUNDARY     97   LAYER   1   ROW     7   COL     7   RATE     750.000    
 BOUNDARY     98   LAYER   1   ROW     7   COL     8   RATE     750.000    
 BOUNDARY     99   LAYER   1   ROW     7   COL     9   RATE     750.000    
 BOUNDARY    100   LAYER   1   ROW     7   COL    10   RATE     750.000    
 BOUNDARY    101   LAYER   1   ROW     7   COL    11   RATE     750.000    
 BOUNDARY    102   LAYER   1   ROW     7   COL    12   RATE     750.000    
 BOUNDARY    103   LAYER   1   ROW     7   COL    13   RATE     750.000    
 BOUNDARY    104   LAYER   1   ROW     7   COL    14   RATE     750.000    
 BOUNDARY    105   LAYER   1   ROW     7   COL    15   RATE     750.000    
 BOUNDARY    106   LAYER   1   ROW     8   COL     1   RATE     750.000    
 BOUNDARY    107   LAYER   1   ROW     8   COL     2   RATE     750.000    
 BOUNDARY    108   LAYER   1   ROW     8   COL     3   RATE     750.000    
 BOUNDARY    109   LAYER   1   ROW     8   COL     4   RATE     750.000    
 BOUNDARY    110   LAYER   1   ROW     8   COL     5   RATE     750.000    
 BOUNDARY    111   LAYER   1   ROW     8   COL     6   RATE     750.000    
 BOUNDARY    112   LAYER   1   ROW     8   COL     7   RATE     750.000    
 BOUNDARY    113   LAYER   1   ROW     8   COL     8   RATE     750.000    
 BOUNDARY    114   LAYER   1   ROW     8   COL     9   RATE     750.000    
 BOUNDARY    115   LAYER   1   ROW     8   COL    10   RATE     750.000    
 BOUNDARY    116   LAYER   1   ROW     8   COL    11   RATE     750.000    
 BOUNDARY    117   LAYER   1   ROW     8   COL    12   RATE     750.000    
 BOUNDARY    118   LAYER   1   ROW     8   COL    13   RATE     750.000    
 BOUNDARY    119   LAYER   1   ROW     8   COL    14   RATE     750.000    
 BOUNDARY    120   LAYER   1   ROW     8   COL    15   RATE     750.000    
 BOUNDARY    121   LAYER   1   ROW     9   COL     1   RATE     750.000    
 BOUNDARY    122   LAYER   1   ROW     9   COL     2   RATE     750.000    
 BOUNDARY    123   LAYER   1   ROW     9   COL     3   RATE     750.000    
 BOUNDARY    124   LAYER   1   ROW     9   COL     4   RATE     750.000    
 BOUNDARY    125   LAYER   1   ROW     9   COL     5   RATE     750.000    
 BOUNDARY    126   LAYER   1   ROW     9   COL     6   RATE     750.000    
 BOUNDARY    127   LAYER   1   ROW     9   COL     7   RATE     750.000    
 BOUNDARY    128   LAYER   1   ROW     9   COL     8   RATE     750.000    
 BOUNDARY    129   LAYER   1   ROW     9   COL     9   RATE     750.000    
 BOUNDARY    130   LAYER   1   ROW     9   COL    10   RATE     750.000    
 BOUNDARY    131   LAYER   1   ROW     9   COL    11   RATE     750.000    
 BOUNDARY    132   LAYER   1   ROW     9   COL    12   RATE     750.000    
 BOUNDARY    133   LAYER   1   ROW     9   COL    13   RATE     750.000    
 BOUNDARY    134   LAYER   1   ROW     9   COL    14   RATE     750.000    
 BOUNDARY    135   LAYER   1   ROW     9   COL    15   RATE     750.000    
 BOUNDARY    137   LAYER   1   ROW    10   COL     2   RATE     750.000    
 BOUNDARY    138   LAYER   1   ROW    10   COL     3   RATE     750.000    
 BOUNDARY    139   LAYER   1   ROW    10   COL     4   RATE     750.000    
 BOUNDARY    140   LAYER   1   ROW    10   COL     5   RATE     750.000    
 BOUNDARY    141   LAYER   1   ROW    10   COL     6   RATE     750.000    
 BOUNDARY    142   LAYER   1   ROW    10   COL     7   RATE     750.000    
 BOUNDARY    143   LAYER   1   ROW    10   COL     8   RATE     750.000    
 BOUNDARY    144   LAYER   1   ROW    10   COL     9   RATE     750.000    
 BOUNDARY    145   LAYER   1   ROW    10   COL    10   RATE     750.000    
 BOUNDARY    146   LAYER   1   ROW    10   COL    11   RATE     750.000    
 BOUNDARY    147   LAYER   1   ROW    10   COL    12   RATE     750.000    
 BOUNDARY    148   LAYER   1   ROW    10   COL    13   RATE     750.000    
 BOUNDARY    149   LAYER   1   ROW    10   COL    14   RATE     750.000    
 BOUNDARY    150   LAYER   1   ROW    10   COL    15   RATE     750.000    
 UBDSV4 SAVING ET SEGS          ON UNIT   1017 AT TIME STEP     10, STRESS PERIOD      6

 ET SEGS            PERIOD  6   STEP 10
 BOUNDARY      1   LAYER   1   ROW     1   COL    13   RATE    -78.6178      ET-1
 BOUNDARY      2   LAYER   1   ROW     2   COL    13   RATE    -148.849      ET-2
 BOUNDARY      3   LAYER   1   ROW     3   COL    13   RATE    -206.359      ET-3
 BOUNDARY      4   LAYER   1   ROW     4   COL    13   RATE    -252.015      ET-4
 BOUNDARY      5   LAYER   1   ROW     5   COL    13   RATE    -300.538      ET-5
 BOUNDARY      6   LAYER   1   ROW     6   COL    13   RATE    -299.739      ET-6
 BOUNDARY      7   LAYER   1   ROW     7   COL    13   RATE    -227.634      ET-7
 BOUNDARY      8   LAYER   1   ROW     8   COL    13   RATE    -179.122      ET-8
 BOUNDARY      9   LAYER   1   ROW     9   COL    13   RATE    -118.026      ET-9
 BOUNDARY     10   LAYER   1   ROW    10   COL    13   RATE    -40.6753      ET-10
 BOUNDARY     11   LAYER   1   ROW     1   COL    12   RATE    -128.262      ET-1
 BOUNDARY     12   LAYER   1   ROW     2   COL    12   RATE    -225.206      ET-2
 BOUNDARY     13   LAYER   1   ROW     3   COL    12   RATE    -285.074      ET-3
 BOUNDARY     14   LAYER   1   ROW     4   COL    12   RATE    -353.561      ET-4
 BOUNDARY     15   LAYER   1   ROW     5   COL    12   RATE    -427.754      ET-5
 BOUNDARY     16   LAYER   1   ROW     6   COL    12   RATE    -426.949      ET-6
 BOUNDARY     17   LAYER   1   ROW     7   COL    12   RATE    -319.975      ET-7
 BOUNDARY     18   LAYER   1   ROW     8   COL    12   RATE    -247.534      ET-8
 BOUNDARY     19   LAYER   1   ROW     9   COL    12   RATE    -184.385      ET-9
 BOUNDARY     20   LAYER   1   ROW    10   COL    12   RATE    -69.5549      ET-10
 UBDSV4 SAVING CONSTANT HEADS   ON UNIT   1017 AT TIME STEP     10, STRESS PERIOD      6

 CONSTANT HEADS     PERIOD  6   STEP 10
 BOUNDARY      1   LAYER   1   ROW     1   COL     1   RATE     2619.34      CHD-1
 BOUNDARY      2   LAYER   1   ROW     4   COL     1   RATE     4721.53    
 BOUNDARY      3   LAYER   1   ROW     5   COL     1   RATE     853.465      CHD_GP
 BOUNDARY      4   LAYER   1   ROW     6   COL     1   RATE     4312.32      CHD_GP
 BOUNDARY      5   LAYER   1   ROW    10   COL     1   RATE     1739.90      CHD-10
1
  HEAD             IN LAYER   1 AT END OF TIME STEP  10 IN STRESS PERIOD    6
  ---------------------------------------------------------------------------

           1       2       3       4       5       6       7       8       9      10      11      12      13      14      15
 ...........................................................................................................................
   1   120.00  117.05  115.81  115.08  114.44  113.69  112.76  111.66  110.38  108.92  107.29  105.49  104.07  102.94  102.07
   2   113.92  114.90  115.09  114.76  114.33  113.65  112.75  111.65  110.35  108.86  107.17  105.25  103.86  102.85  102.07
   3   105.36  113.18  114.63  114.31  114.22  113.63  112.74  111.63  110.31  108.77  107.00  104.92  103.56  102.73  102.07
   4   120.00  116.72  115.67  114.96  114.40  113.68  112.74  111.61  110.26  108.68  106.82  104.58  103.26  102.60  102.07
   5   120.00  117.51  116.09  115.23  114.51  113.71  112.75  111.60  110.24  108.62  106.68  104.28  103.01  102.49  102.06
   6   120.00  116.82  115.77  115.12  114.49  113.71  112.76  111.61  110.24  108.62  106.68  104.27  103.00  102.49  102.06
   7   107.00  113.51  114.82  114.78  114.39  113.70  112.77  111.64  110.29  108.70  106.82  104.57  103.25  102.59  102.07
   8   112.98  114.48  114.95  114.58  114.36  113.71  112.80  111.68  110.35  108.81  107.03  104.95  103.58  102.73  102.07
   9   116.57  116.15  115.69  115.11  114.54  113.79  112.84  111.72  110.41  108.92  107.24  105.34  103.93  102.89  102.07
  10   120.00  117.62  116.31  115.44  114.67  113.84  112.88  111.75  110.46  109.00  107.39  105.66  104.21  103.00  102.07
1
  HEAD             IN LAYER   2 AT END OF TIME STEP  10 IN STRESS PERIOD    6
  ---------------------------------------------------------------------------

           1       2       3       4       5       6       7       8       9      10      11      12      13      14      15
 ...........................................................................................................................
   1   112.54  110.26  106.46  102.98  105.49  108.34  109.83  110.06  109.46  108.37  107.04  105.67  104.53  103.72  103.32
   2   110.47  107.73  100.83   90.38  100.12  106.54  109.28  109.90  109.39  108.32  106.97  105.58  104.44  103.67  103.29
   3   108.78  105.18   91.13   45.18   90.53  104.40  108.79  109.77  109.34  108.25  106.87  105.44  104.31  103.59  103.25
   4   111.78  108.51  101.32   90.73  100.38  106.72  109.38  109.93  109.36  108.21  106.77  105.30  104.18  103.51  103.21
   5   113.27  110.97  107.15  103.67  106.03  108.72  110.05  110.15  109.42  108.20  106.71  105.20  104.09  103.45  103.18
   6   112.96  110.90  107.47  104.52  106.48  108.96  110.20  110.23  109.47  108.22  106.72  105.21  104.09  103.45  103.18
   7   110.38  108.52  103.10   96.94  102.44  107.53  109.81  110.17  109.49  108.28  106.81  105.32  104.19  103.51  103.21
   8   110.57  107.13   97.84   85.25   97.13  105.96  109.45  110.13  109.54  108.36  106.93  105.48  104.34  103.61  103.26
   9   112.41  109.66  103.77   97.40  102.77  107.77  109.99  110.31  109.63  108.46  107.06  105.65  104.50  103.71  103.31
  10   114.11  111.95  108.39  105.36  107.13  109.44  110.54  110.49  109.71  108.52  107.15  105.77  104.60  103.77  103.35

 HEAD WILL BE SAVED ON UNIT 1018 AT END OF TIME STEP   10, STRESS PERIOD    6
1
  VOLUME BUDGET FOR ENTIRE MODEL AT END OF TIME STEP   10, STRESS PERIOD   6
  ------------------------------------------------------------------------------

     CUMULATIVE VOLUME      L**3       RATES FOR THIS TIME STEP      L**3/T
     ------------------                 ------------------------

           IN:                                      IN:
           ---                                      ---
         STORAGE(SS) =       87660.5372           STORAGE(SS) =        1659.8661
         STORAGE(SY) =      468363.3820           STORAGE(SY) =       93328.7072
    WELLS NEAR RIVER =           0.0000      WELLS NEAR RIVER =           0.0000
               RIVER =      521888.8807                 RIVER =           0.0000
           GHB LAKES =       47517.8120             GHB LAKES =        4211.5384
            RECHARGE =     1094750.0000              RECHARGE =      108750.0000
             ET SEGS =           0.0000               ET SEGS =           0.0000
      CONSTANT HEADS =      156873.9552        CONSTANT HEADS =       14246.5608

            TOTAL IN =     2377054.5671              TOTAL IN =      222196.6725

          OUT:                                     OUT:
          ----                                     ----
         STORAGE(SS) =        9612.8854           STORAGE(SS) =        7714.1231
         STORAGE(SY) =     1444559.8171           STORAGE(SY) =       88962.5511
    WELLS NEAR RIVER =      320240.0000      WELLS NEAR RIVER =           0.0000
               RIVER =      345603.2265                 RIVER =      101882.4962
           GHB LAKES =      208326.3526             GHB LAKES =       19117.6739
            RECHARGE =           0.0000              RECHARGE =           0.0000
             ET SEGS =       48712.2909               ET SEGS =        4519.8282
      CONSTANT HEADS =           0.0000        CONSTANT HEADS =           0.0000

           TOTAL OUT =     2377054.5725             TOTAL OUT =      222196.6725

            IN - OUT =      -5.4016E-03              IN - OUT =       2.8376E-08

 PERCENT DISCREPANCY =          -0.00     PERCENT DISCREPANCY =           0.00






         TIME SUMMARY AT END OF TIME STEP   10 IN STRESS PERIOD    6
                    SECONDS     MINUTES      HOURS       DAYS        YEARS
                    -----------------------------------------------------------
   TIME STEP LENGTH  17280.      288.00      4.8000     0.20000     5.47570E-04
 STRESS PERIOD TIME 1.72800E+05  2880.0      48.000      2.0000     5.47570E-03
         TOTAL TIME 9.50400E+05  15840.      264.00      11.000     3.01164E-02
 
