
 OPENED mf2015.nam
 FILE TYPE:NAM   UNIT 1001   STATUS:OLD                 
 FORMAT:FORMATTED              ACCESS:SEQUENTIAL          
 ACTION:READ                

                                  MODFLOW-2015
                U.S. GEOLOGICAL SURVEY MODULAR HYDROLOGIC MODEL
                              SIMULATION LIST FILE

 READING SIMULATION OPTIONS
 END OF SIMULATION OPTIONS

 READING SIMULATION TIMING

 OPENED simulation.tdis
 FILE TYPE:TDIS   UNIT 1002   STATUS:OLD                 
 FORMAT:FORMATTED              ACCESS:SEQUENTIAL          
 ACTION:READ                


 TDIS -- TEMPORAL DISCRETIZATION PACKAGE,
 VERSION 1 : 11/13/2014 - INPUT READ FROM UNIT 1002
 PROCESSING TDIS OPTIONS
    MODEL TIME UNIT IS DAYS
 END OF TDIS OPTIONS
 PROCESSING TDIS DIMENSIONS
    6 STRESS PERIOD(S) IN SIMULATION
 END OF TDIS DIMENSIONS
 PROCESSING TDIS STRESS_PERIODS


 STRESS PERIOD     LENGTH       TIME STEPS     MULTIPLIER FOR DELT
 ----------------------------------------------------------------------------
        1        1.0000000          1                    1.000
        2         2.000000         10                    1.000
        3         2.000000         10                    1.000
        4         2.000000         10                    1.000
        5         2.000000         10                    1.000
        6         2.000000         10                    1.000
 END OF TDIS STRESS_PERIODS
 END OF SIMULATION TIMING

 READING SIMULATION MODELS
 #modeltype      namefile     modelname
 END OF SIMULATION MODELS

 READING SIMULATION EXCHANGES
 END OF SIMULATION EXCHANGES

 READING SOLUTION_GROUP

 Creating solution: SLN_1               

 OPENED model.sms
 FILE TYPE:SMS   UNIT 1003   STATUS:OLD                 
 FORMAT:FORMATTED              ACCESS:SEQUENTIAL          
 ACTION:READ                

 END OF SIMULATION SOLUTION_GROUP

 SMS -- SPARSE MATRIX SOLVER PACKAGE, VERSION 8, 5/2/2005
         INPUT READ FROM UNIT 1003

 PROCESSING SMS OPTIONS
 END OF SMS OPTIONS

 PROCESSING SMS NONLINEAR
 END OF SMS NONLINEAR DATA
 OUTER ITERATION CONVERGENCE CRITERION (HCLOSE) =    0.100000E-03
 MAXIMUM NUMBER OF OUTER ITERATIONS (MXITER)     =       500
 SOLVER PRINTOUT INDEX             (IPRSMS)      =         0
 NONLINEAR ITERATION METHOD    (NONLINMETH)      =         0
 LINEAR SOLUTION METHOD           (LINMETH)      =         2
 ***PICARD LINEARIZATION WILL BE USED***
 
 ***PCGU LINEAR SOLVER WILL BE USED***

 PCGU -- UNSTRUCTURED CONJUGATE-GRADIENT SOLUTION PACKAGE, VERSION 8.02, 08/13/2013

 PROCESSING PCGU DATA
 END OF PCGU

              SOLUTION BY THE CONJUGATE-GRADIENT METHOD
 ------------------------------------------------------------------
 MAXIMUM OF      0 CALLS OF SOLUTION ROUTINE
 MAXIMUM OF    100 INTERNAL ITERATIONS PER CALL TO SOLUTION ROUTINE
 LINEAR ACCELERATION METHOD            = CG        
 MATRIX PRECONDITIONING TYPE           = MOD. INCOMPLETE LU  
 MATRIX SCALING APPROACH               = NO SCALING          
 MATRIX REORDERING APPROACH            = ORIGINAL ORDERING        
 HEAD CHANGE CRITERION FOR CLOSURE     =    0.10000E-03
 RESIDUAL CHANGE CRITERION FOR CLOSURE =    0.10000E-02
 RESIDUAL CONVERGENCE OPTION           =        0
 RESIDUAL CONVERGENCE NORM             = INFINITY NORM   
 RELAXATION FACTOR                     =    0.97000E+00
  ONLY USED WITH MILU0 PRECONDITIONER


 
1
                            STRESS PERIOD NO.    1, LENGTH =  1.0000000    
                            -----------------------------------------------

                              NUMBER OF TIME STEPS =     1

                               MULTIPLIER FOR DELT =     1.000

                            INITIAL TIME STEP SIZE =  1.0000000    

PICARD ITERATION:      1


 Outer-Iteration  Inner-Iteration    Maximum Head Change  Maximum Head Change
     Number           Count               Value              Location
        1              100              -0.10933E+19               300           GWF-node number
        2              100              -0.18758E+19               180           GWF-node number
        3              100               0.22646E+20               300           GWF-node number
        4               56              -0.19677E+20               150           GWF-node number
        5               26               -89053.                     5           GWF-node number
        6               16               -3.6984                   120           GWF-node number
        7               16               -2.1371                   105           GWF-node number
        8               12              -0.15906                   120           GWF-node number
        9               11              -0.14864E-01               120           GWF-node number
       10                7              -0.12480E-02               120           GWF-node number
       11                4              -0.10176E-03               120           GWF-node number
       12                2              -0.81495E-05               120           GWF-node number


    12 CALLS TO NUMERICAL SOLUTION  IN TIME STEP   1 STRESS PERIOD   1

 TOTAL OF      12OUTER ITERATIONS
  MAXIMUM CHANGE FOR EACH ITERATION:
   MAX. CHANGE        NODE  MAX. CHANGE        NODE  MAX. CHANGE        NODE  MAX. CHANGE        NODE  MAX. CHANGE        NODE
 ------------------------------------------------------------------------------------------------------------------------------------
  -0.10933E+19,        300 -0.18758E+19,        180  0.22646E+20,        300 -0.19677E+20,        150  -89053.    ,          5
   -3.6984    ,        120  -2.1371    ,        105 -0.15906    ,        120 -0.14864E-01,        120 -0.12480E-02,        120
  -0.10176E-03,        120 -0.81495E-05,        120

 Outer-Iteration  Inner-Iteration    Maximum Head Change  Maximum Head Change
     Number           Count               Value              Location
        1                1              -0.11603E-05               154           GWF-node number


     1 CALLS TO NUMERICAL SOLUTION  IN TIME STEP   1 STRESS PERIOD   1

 TOTAL OF       1OUTER ITERATIONS
  MAXIMUM CHANGE FOR EACH ITERATION:
   MAX. CHANGE        NODE  MAX. CHANGE        NODE  MAX. CHANGE        NODE  MAX. CHANGE        NODE  MAX. CHANGE        NODE
 ------------------------------------------------------------------------------------------------------------------------------------
  -0.11603E-05,        154
1
                            STRESS PERIOD NO.    2, LENGTH =   2.000000    
                            -----------------------------------------------

                              NUMBER OF TIME STEPS =    10

                               MULTIPLIER FOR DELT =     1.000

                            INITIAL TIME STEP SIZE =  0.2000000    

PICARD ITERATION:      1


 Outer-Iteration  Inner-Iteration    Maximum Head Change  Maximum Head Change
     Number           Count               Value              Location
        1                2              -0.11999E-02               184           GWF-node number
        2                2              -0.14327E-03               135           GWF-node number
        3                2               0.26462E-03               120           GWF-node number
        4                2              -0.51942E-03               120           GWF-node number
        5                2               0.10196E-02               120           GWF-node number
        6                2              -0.20014E-02               120           GWF-node number
        7                2               0.39285E-02               120           GWF-node number
        8                2              -0.77112E-02               120           GWF-node number
        9                2               0.15137E-01               120           GWF-node number
       10                2              -0.29710E-01               120           GWF-node number
       11                2               0.58329E-01               120           GWF-node number
       12                2              -0.11445                   120           GWF-node number
       13                2               0.22482                   120           GWF-node number
       14                2              -0.44068                   120           GWF-node number
       15                2               0.86740                   120           GWF-node number
       16                2               -1.6935                   120           GWF-node number
       17                2                3.3600                   120           GWF-node number
       18                2               -6.4613                   120           GWF-node number
       19                2                13.233                   120           GWF-node number
       20                2               -24.089                   120           GWF-node number
       21                2                56.771                   120           GWF-node number
       22                2               -87.087                   120           GWF-node number
       23                2                753.52                   120           GWF-node number
       24                2               -757.13                   120           GWF-node number
       25                2                2062.9                    31           GWF-node number
       26                2               -2062.9                    31           GWF-node number
       27                2                2062.9                    31           GWF-node number
       28                2               -2062.9                    31           GWF-node number
       29                2                2062.9                    31           GWF-node number
       30                2               -2062.9                    31           GWF-node number
       31                2                2062.9                    31           GWF-node number
       32                2               -2062.9                    31           GWF-node number
       33                2                2062.9                    31           GWF-node number
       34                2               -2062.9                    31           GWF-node number
       35                2                2062.9                    31           GWF-node number
       36                2               -2062.9                    31           GWF-node number
       37                2                2062.9                    31           GWF-node number
       38                2               -2062.9                    31           GWF-node number
       39                2                2062.9                    31           GWF-node number
       40                2               -2062.9                    31           GWF-node number
       41                2                2062.9                    31           GWF-node number
       42                2               -2062.9                    31           GWF-node number
       43                2                2062.9                    31           GWF-node number
       44                2               -2062.9                    31           GWF-node number
       45                2                2062.9                    31           GWF-node number
       46                2               -2062.9                    31           GWF-node number
       47                2                2062.9                    31           GWF-node number
       48                2               -2062.9                    31           GWF-node number
       49                2                2062.9                    31           GWF-node number
       50                2               -2062.9                    31           GWF-node number
       51                2                2062.9                    31           GWF-node number
       52                2               -2062.9                    31           GWF-node number
       53                2                2062.9                    31           GWF-node number
       54                2               -2062.9                    31           GWF-node number
       55                2                2062.9                    31           GWF-node number
       56                2               -2062.9                    31           GWF-node number
       57                2                2062.9                    31           GWF-node number
       58                2               -2062.9                    31           GWF-node number
       59                2                2062.9                    31           GWF-node number
       60                2               -2062.9                    31           GWF-node number
       61                2                2062.9                    31           GWF-node number
       62                2               -2062.9                    31           GWF-node number
       63                2                2062.9                    31           GWF-node number
       64                2               -2062.9                    31           GWF-node number
       65                2                2062.9                    31           GWF-node number
       66                2               -2062.9                    31           GWF-node number
       67                2                2062.9                    31           GWF-node number
       68                2               -2062.9                    31           GWF-node number
       69                2                2062.9                    31           GWF-node number
       70                2               -2062.9                    31           GWF-node number
       71                2                2062.9                    31           GWF-node number
       72                2               -2062.9                    31           GWF-node number
       73                2                2062.9                    31           GWF-node number
       74                2               -2062.9                    31           GWF-node number
       75                2                2062.9                    31           GWF-node number
       76                2               -2062.9                    31           GWF-node number
       77                2                2062.9                    31           GWF-node number
       78                2               -2062.9                    31           GWF-node number
       79                2                2062.9                    31           GWF-node number
       80                2               -2062.9                    31           GWF-node number
       81                2                2062.9                    31           GWF-node number
       82                2               -2062.9                    31           GWF-node number
       83                2                2062.9                    31           GWF-node number
       84                2               -2062.9                    31           GWF-node number
       85                2                2062.9                    31           GWF-node number
       86                2               -2062.9                    31           GWF-node number
       87                2                2062.9                    31           GWF-node number
       88                2               -2062.9                    31           GWF-node number
       89                2                2062.9                    31           GWF-node number
       90                2               -2062.9                    31           GWF-node number
       91                2                2062.9                    31           GWF-node number
       92                2               -2062.9                    31           GWF-node number
       93                2                2062.9                    31           GWF-node number
       94                2               -2062.9                    31           GWF-node number
       95                2                2062.9                    31           GWF-node number
       96                2               -2062.9                    31           GWF-node number
       97                2                2062.9                    31           GWF-node number
       98                2               -2062.9                    31           GWF-node number
       99                2                2062.9                    31           GWF-node number
      100                2               -2062.9                    31           GWF-node number
      101                2                2062.9                    31           GWF-node number
      102                2               -2062.9                    31           GWF-node number
      103                2                2062.9                    31           GWF-node number
      104                2               -2062.9                    31           GWF-node number
      105                2                2062.9                    31           GWF-node number
      106                2               -2062.9                    31           GWF-node number
      107                2                2062.9                    31           GWF-node number
      108                2               -2062.9                    31           GWF-node number
      109                2                2062.9                    31           GWF-node number
      110                2               -2062.9                    31           GWF-node number
      111                2                2062.9                    31           GWF-node number
      112                2               -2062.9                    31           GWF-node number
      113                2                2062.9                    31           GWF-node number
      114                2               -2062.9                    31           GWF-node number
      115                2                2062.9                    31           GWF-node number
      116                2               -2062.9                    31           GWF-node number
      117                2                2062.9                    31           GWF-node number
      118                2               -2062.9                    31           GWF-node number
      119                2                2062.9                    31           GWF-node number
      120                2               -2062.9                    31           GWF-node number
      121                2                2062.9                    31           GWF-node number
      122                2               -2062.9                    31           GWF-node number
      123                2                2062.9                    31           GWF-node number
      124                2               -2062.9                    31           GWF-node number
      125                2                2062.9                    31           GWF-node number
      126                2               -2062.9                    31           GWF-node number
      127                2                2062.9                    31           GWF-node number
      128                2               -2062.9                    31           GWF-node number
      129                2                2062.9                    31           GWF-node number
      130                2               -2062.9                    31           GWF-node number
      131                2                2062.9                    31           GWF-node number
      132                2               -2062.9                    31           GWF-node number
      133                2                2062.9                    31           GWF-node number
      134                2               -2062.9                    31           GWF-node number
      135                2                2062.9                    31           GWF-node number
      136                2               -2062.9                    31           GWF-node number
      137                2                2062.9                    31           GWF-node number
      138                2               -2062.9                    31           GWF-node number
      139                2                2062.9                    31           GWF-node number
      140                2               -2062.9                    31           GWF-node number
      141                2                2062.9                    31           GWF-node number
      142                2               -2062.9                    31           GWF-node number
      143                2                2062.9                    31           GWF-node number
      144                2               -2062.9                    31           GWF-node number
      145                2                2062.9                    31           GWF-node number
      146                2               -2062.9                    31           GWF-node number
      147                2                2062.9                    31           GWF-node number
      148                2               -2062.9                    31           GWF-node number
      149                2                2062.9                    31           GWF-node number
      150                2               -2062.9                    31           GWF-node number
      151                2                2062.9                    31           GWF-node number
      152                2               -2062.9                    31           GWF-node number
      153                2                2062.9                    31           GWF-node number
      154                2               -2062.9                    31           GWF-node number
      155                2                2062.9                    31           GWF-node number
      156                2               -2062.9                    31           GWF-node number
      157                2                2062.9                    31           GWF-node number
      158                2               -2062.9                    31           GWF-node number
      159                2                2062.9                    31           GWF-node number
      160                2               -2062.9                    31           GWF-node number
      161                2                2062.9                    31           GWF-node number
      162                2               -2062.9                    31           GWF-node number
      163                2                2062.9                    31           GWF-node number
      164                2               -2062.9                    31           GWF-node number
      165                2                2062.9                    31           GWF-node number
      166                2               -2062.9                    31           GWF-node number
      167                2                2062.9                    31           GWF-node number
      168                2               -2062.9                    31           GWF-node number
      169                2                2062.9                    31           GWF-node number
      170                2               -2062.9                    31           GWF-node number
      171                2                2062.9                    31           GWF-node number
      172                2               -2062.9                    31           GWF-node number
      173                2                2062.9                    31           GWF-node number
      174                2               -2062.9                    31           GWF-node number
      175                2                2062.9                    31           GWF-node number
      176                2               -2062.9                    31           GWF-node number
      177                2                2062.9                    31           GWF-node number
      178                2               -2062.9                    31           GWF-node number
      179                2                2062.9                    31           GWF-node number
      180                2               -2062.9                    31           GWF-node number
      181                2                2062.9                    31           GWF-node number
      182                2               -2062.9                    31           GWF-node number
      183                2                2062.9                    31           GWF-node number
      184                2               -2062.9                    31           GWF-node number
      185                2                2062.9                    31           GWF-node number
      186                2               -2062.9                    31           GWF-node number
      187                2                2062.9                    31           GWF-node number
      188                2               -2062.9                    31           GWF-node number
      189                2                2062.9                    31           GWF-node number
      190                2               -2062.9                    31           GWF-node number
      191                2                2062.9                    31           GWF-node number
      192                2               -2062.9                    31           GWF-node number
      193                2                2062.9                    31           GWF-node number
      194                2               -2062.9                    31           GWF-node number
      195                2                2062.9                    31           GWF-node number
      196                2               -2062.9                    31           GWF-node number
      197                2                2062.9                    31           GWF-node number
      198                2               -2062.9                    31           GWF-node number
      199                2                2062.9                    31           GWF-node number
      200                2               -2062.9                    31           GWF-node number
      201                2                2062.9                    31           GWF-node number
      202                2               -2062.9                    31           GWF-node number
      203                2                2062.9                    31           GWF-node number
      204                2               -2062.9                    31           GWF-node number
      205                2                2062.9                    31           GWF-node number
      206                2               -2062.9                    31           GWF-node number
      207                2                2062.9                    31           GWF-node number
      208                2               -2062.9                    31           GWF-node number
      209                2                2062.9                    31           GWF-node number
      210                2               -2062.9                    31           GWF-node number
      211                2                2062.9                    31           GWF-node number
      212                2               -2062.9                    31           GWF-node number
      213                2                2062.9                    31           GWF-node number
      214                2               -2062.9                    31           GWF-node number
      215                2                2062.9                    31           GWF-node number
      216                2               -2062.9                    31           GWF-node number
      217                2                2062.9                    31           GWF-node number
      218                2               -2062.9                    31           GWF-node number
      219                2                2062.9                    31           GWF-node number
      220                2               -2062.9                    31           GWF-node number
      221                2                2062.9                    31           GWF-node number
      222                2               -2062.9                    31           GWF-node number
      223                2                2062.9                    31           GWF-node number
      224                2               -2062.9                    31           GWF-node number
      225                2                2062.9                    31           GWF-node number
      226                2               -2062.9                    31           GWF-node number
      227                2                2062.9                    31           GWF-node number
      228                2               -2062.9                    31           GWF-node number
      229                2                2062.9                    31           GWF-node number
      230                2               -2062.9                    31           GWF-node number
      231                2                2062.9                    31           GWF-node number
      232                2               -2062.9                    31           GWF-node number
      233                2                2062.9                    31           GWF-node number
      234                2               -2062.9                    31           GWF-node number
      235                2                2062.9                    31           GWF-node number
      236                2               -2062.9                    31           GWF-node number
      237                2                2062.9                    31           GWF-node number
      238                2               -2062.9                    31           GWF-node number
      239                2                2062.9                    31           GWF-node number
      240                2               -2062.9                    31           GWF-node number
      241                2                2062.9                    31           GWF-node number
      242                2               -2062.9                    31           GWF-node number
      243                2                2062.9                    31           GWF-node number
      244                2               -2062.9                    31           GWF-node number
      245                2                2062.9                    31           GWF-node number
      246                2               -2062.9                    31           GWF-node number
      247                2                2062.9                    31           GWF-node number
      248                2               -2062.9                    31           GWF-node number
      249                2                2062.9                    31           GWF-node number
      250                2               -2062.9                    31           GWF-node number
      251                2                2062.9                    31           GWF-node number
      252                2               -2062.9                    31           GWF-node number
      253                2                2062.9                    31           GWF-node number
      254                2               -2062.9                    31           GWF-node number
      255                2                2062.9                    31           GWF-node number
      256                2               -2062.9                    31           GWF-node number
      257                2                2062.9                    31           GWF-node number
      258                2               -2062.9                    31           GWF-node number
      259                2                2062.9                    31           GWF-node number
      260                2               -2062.9                    31           GWF-node number
      261                2                2062.9                    31           GWF-node number
      262                2               -2062.9                    31           GWF-node number
      263                2                2062.9                    31           GWF-node number
      264                2               -2062.9                    31           GWF-node number
      265                2                2062.9                    31           GWF-node number
      266                2               -2062.9                    31           GWF-node number
      267                2                2062.9                    31           GWF-node number
      268                2               -2062.9                    31           GWF-node number
      269                2                2062.9                    31           GWF-node number
      270                2               -2062.9                    31           GWF-node number
      271                2                2062.9                    31           GWF-node number
      272                2               -2062.9                    31           GWF-node number
      273                2                2062.9                    31           GWF-node number
      274                2               -2062.9                    31           GWF-node number
      275                2                2062.9                    31           GWF-node number
      276                2               -2062.9                    31           GWF-node number
      277                2                2062.9                    31           GWF-node number
      278                2               -2062.9                    31           GWF-node number
      279                2                2062.9                    31           GWF-node number
      280                2               -2062.9                    31           GWF-node number
      281                2                2062.9                    31           GWF-node number
      282                2               -2062.9                    31           GWF-node number
      283                2                2062.9                    31           GWF-node number
      284                2               -2062.9                    31           GWF-node number
      285                2                2062.9                    31           GWF-node number
      286                2               -2062.9                    31           GWF-node number
      287                2                2062.9                    31           GWF-node number
      288                2               -2062.9                    31           GWF-node number
      289                2                2062.9                    31           GWF-node number
      290                2               -2062.9                    31           GWF-node number
      291                2                2062.9                    31           GWF-node number
      292                2               -2062.9                    31           GWF-node number
      293                2                2062.9                    31           GWF-node number
      294                2               -2062.9                    31           GWF-node number
      295                2                2062.9                    31           GWF-node number
      296                2               -2062.9                    31           GWF-node number
      297                2                2062.9                    31           GWF-node number
      298                2               -2062.9                    31           GWF-node number
      299                2                2062.9                    31           GWF-node number
      300                2               -2062.9                    31           GWF-node number
      301                2                2062.9                    31           GWF-node number
      302                2               -2062.9                    31           GWF-node number
      303                2                2062.9                    31           GWF-node number
      304                2               -2062.9                    31           GWF-node number
      305                2                2062.9                    31           GWF-node number
      306                2               -2062.9                    31           GWF-node number
      307                2                2062.9                    31           GWF-node number
      308                2               -2062.9                    31           GWF-node number
      309                2                2062.9                    31           GWF-node number
      310                2               -2062.9                    31           GWF-node number
      311                2                2062.9                    31           GWF-node number
      312                2               -2062.9                    31           GWF-node number
      313                2                2062.9                    31           GWF-node number
      314                2               -2062.9                    31           GWF-node number
      315                2                2062.9                    31           GWF-node number
      316                2               -2062.9                    31           GWF-node number
      317                2                2062.9                    31           GWF-node number
      318                2               -2062.9                    31           GWF-node number
      319                2                2062.9                    31           GWF-node number
      320                2               -2062.9                    31           GWF-node number
      321                2                2062.9                    31           GWF-node number
      322                2               -2062.9                    31           GWF-node number
      323                2                2062.9                    31           GWF-node number
      324                2               -2062.9                    31           GWF-node number
      325                2                2062.9                    31           GWF-node number
      326                2               -2062.9                    31           GWF-node number
      327                2                2062.9                    31           GWF-node number
      328                2               -2062.9                    31           GWF-node number
      329                2                2062.9                    31           GWF-node number
      330                2               -2062.9                    31           GWF-node number
      331                2                2062.9                    31           GWF-node number
      332                2               -2062.9                    31           GWF-node number
      333                2                2062.9                    31           GWF-node number
      334                2               -2062.9                    31           GWF-node number
      335                2                2062.9                    31           GWF-node number
      336                2               -2062.9                    31           GWF-node number
      337                2                2062.9                    31           GWF-node number
      338                2               -2062.9                    31           GWF-node number
      339                2                2062.9                    31           GWF-node number
      340                2               -2062.9                    31           GWF-node number
      341                2                2062.9                    31           GWF-node number
      342                2               -2062.9                    31           GWF-node number
      343                2                2062.9                    31           GWF-node number
      344                2               -2062.9                    31           GWF-node number
      345                2                2062.9                    31           GWF-node number
      346                2               -2062.9                    31           GWF-node number
      347                2                2062.9                    31           GWF-node number
      348                2               -2062.9                    31           GWF-node number
      349                2                2062.9                    31           GWF-node number
      350                2               -2062.9                    31           GWF-node number
      351                2                2062.9                    31           GWF-node number
      352                2               -2062.9                    31           GWF-node number
      353                2                2062.9                    31           GWF-node number
      354                2               -2062.9                    31           GWF-node number
      355                2                2062.9                    31           GWF-node number
      356                2               -2062.9                    31           GWF-node number
      357                2                2062.9                    31           GWF-node number
      358                2               -2062.9                    31           GWF-node number
      359                2                2062.9                    31           GWF-node number
      360                2               -2062.9                    31           GWF-node number
      361                2                2062.9                    31           GWF-node number
      362                2               -2062.9                    31           GWF-node number
      363                2                2062.9                    31           GWF-node number
      364                2               -2062.9                    31           GWF-node number
      365                2                2062.9                    31           GWF-node number
      366                2               -2062.9                    31           GWF-node number
      367                2                2062.9                    31           GWF-node number
      368                2               -2062.9                    31           GWF-node number
      369                2                2062.9                    31           GWF-node number
      370                2               -2062.9                    31           GWF-node number
      371                2                2062.9                    31           GWF-node number
      372                2               -2062.9                    31           GWF-node number
      373                2                2062.9                    31           GWF-node number
      374                2               -2062.9                    31           GWF-node number
      375                2                2062.9                    31           GWF-node number
      376                2               -2062.9                    31           GWF-node number
      377                2                2062.9                    31           GWF-node number
      378                2               -2062.9                    31           GWF-node number
      379                2                2062.9                    31           GWF-node number
      380                2               -2062.9                    31           GWF-node number
      381                2                2062.9                    31           GWF-node number
      382                2               -2062.9                    31           GWF-node number
      383                2                2062.9                    31           GWF-node number
      384                2               -2062.9                    31           GWF-node number
      385                2                2062.9                    31           GWF-node number
      386                2               -2062.9                    31           GWF-node number
      387                2                2062.9                    31           GWF-node number
      388                2               -2062.9                    31           GWF-node number
      389                2                2062.9                    31           GWF-node number
      390                2               -2062.9                    31           GWF-node number
      391                2                2062.9                    31           GWF-node number
      392                2               -2062.9                    31           GWF-node number
      393                2                2062.9                    31           GWF-node number
      394                2               -2062.9                    31           GWF-node number
      395                2                2062.9                    31           GWF-node number
      396                2               -2062.9                    31           GWF-node number
      397                2                2062.9                    31           GWF-node number
      398                2               -2062.9                    31           GWF-node number
      399                2                2062.9                    31           GWF-node number
      400                2               -2062.9                    31           GWF-node number
      401                2                2062.9                    31           GWF-node number
      402                2               -2062.9                    31           GWF-node number
      403                2                2062.9                    31           GWF-node number
      404                2               -2062.9                    31           GWF-node number
      405                2                2062.9                    31           GWF-node number
      406                2               -2062.9                    31           GWF-node number
      407                2                2062.9                    31           GWF-node number
      408                2               -2062.9                    31           GWF-node number
      409                2                2062.9                    31           GWF-node number
      410                2               -2062.9                    31           GWF-node number
      411                2                2062.9                    31           GWF-node number
      412                2               -2062.9                    31           GWF-node number
      413                2                2062.9                    31           GWF-node number
      414                2               -2062.9                    31           GWF-node number
      415                2                2062.9                    31           GWF-node number
      416                2               -2062.9                    31           GWF-node number
      417                2                2062.9                    31           GWF-node number
      418                2               -2062.9                    31           GWF-node number
      419                2                2062.9                    31           GWF-node number
      420                2               -2062.9                    31           GWF-node number
      421                2                2062.9                    31           GWF-node number
      422                2               -2062.9                    31           GWF-node number
      423                2                2062.9                    31           GWF-node number
      424                2               -2062.9                    31           GWF-node number
      425                2                2062.9                    31           GWF-node number
      426                2               -2062.9                    31           GWF-node number
      427                2                2062.9                    31           GWF-node number
      428                2               -2062.9                    31           GWF-node number
      429                2                2062.9                    31           GWF-node number
      430                2               -2062.9                    31           GWF-node number
      431                2                2062.9                    31           GWF-node number
      432                2               -2062.9                    31           GWF-node number
      433                2                2062.9                    31           GWF-node number
      434                2               -2062.9                    31           GWF-node number
      435                2                2062.9                    31           GWF-node number
      436                2               -2062.9                    31           GWF-node number
      437                2                2062.9                    31           GWF-node number
      438                2               -2062.9                    31           GWF-node number
      439                2                2062.9                    31           GWF-node number
      440                2               -2062.9                    31           GWF-node number
      441                2                2062.9                    31           GWF-node number
      442                2               -2062.9                    31           GWF-node number
      443                2                2062.9                    31           GWF-node number
      444                2               -2062.9                    31           GWF-node number
      445                2                2062.9                    31           GWF-node number
      446                2               -2062.9                    31           GWF-node number
      447                2                2062.9                    31           GWF-node number
      448                2               -2062.9                    31           GWF-node number
      449                2                2062.9                    31           GWF-node number
      450                2               -2062.9                    31           GWF-node number
      451                2                2062.9                    31           GWF-node number
      452                2               -2062.9                    31           GWF-node number
      453                2                2062.9                    31           GWF-node number
      454                2               -2062.9                    31           GWF-node number
      455                2                2062.9                    31           GWF-node number
      456                2               -2062.9                    31           GWF-node number
      457                2                2062.9                    31           GWF-node number
      458                2               -2062.9                    31           GWF-node number
      459                2                2062.9                    31           GWF-node number
      460                2               -2062.9                    31           GWF-node number
      461                2                2062.9                    31           GWF-node number
      462                2               -2062.9                    31           GWF-node number
      463                2                2062.9                    31           GWF-node number
      464                2               -2062.9                    31           GWF-node number
      465                2                2062.9                    31           GWF-node number
      466                2               -2062.9                    31           GWF-node number
      467                2                2062.9                    31           GWF-node number
      468                2               -2062.9                    31           GWF-node number
      469                2                2062.9                    31           GWF-node number
      470                2               -2062.9                    31           GWF-node number
      471                2                2062.9                    31           GWF-node number
      472                2               -2062.9                    31           GWF-node number
      473                2                2062.9                    31           GWF-node number
      474                2               -2062.9                    31           GWF-node number
      475                2                2062.9                    31           GWF-node number
      476                2               -2062.9                    31           GWF-node number
      477                2                2062.9                    31           GWF-node number
      478                2               -2062.9                    31           GWF-node number
      479                2                2062.9                    31           GWF-node number
      480                2               -2062.9                    31           GWF-node number
      481                2                2062.9                    31           GWF-node number
      482                2               -2062.9                    31           GWF-node number
      483                2                2062.9                    31           GWF-node number
      484                2               -2062.9                    31           GWF-node number
      485                2                2062.9                    31           GWF-node number
      486                2               -2062.9                    31           GWF-node number
      487                2                2062.9                    31           GWF-node number
      488                2               -2062.9                    31           GWF-node number
      489                2                2062.9                    31           GWF-node number
      490                2               -2062.9                    31           GWF-node number
      491                2                2062.9                    31           GWF-node number
      492                2               -2062.9                    31           GWF-node number
      493                2                2062.9                    31           GWF-node number
      494                2               -2062.9                    31           GWF-node number
      495                2                2062.9                    31           GWF-node number
      496                2               -2062.9                    31           GWF-node number
      497                2                2062.9                    31           GWF-node number
      498                2               -2062.9                    31           GWF-node number
      499                2                2062.9                    31           GWF-node number
      500                2               -2062.9                    31           GWF-node number

PICARD ITERATION:      2


 Outer-Iteration  Inner-Iteration    Maximum Head Change  Maximum Head Change
     Number           Count               Value              Location
        1                2               0.11886                    31           GWF-node number
        2                2               -2.4046                    31           GWF-node number
        3                2                619.29                    31           GWF-node number
        4                2               -668.17                    31           GWF-node number
        5                2               -51.401                   120           GWF-node number
        6                2               -103.18                    15           GWF-node number
        7                2                8836.8                    32           GWF-node number
        8                2               -8881.6                    32           GWF-node number
        9                2                495.67                   122           GWF-node number
       10                2               -538.09                   122           GWF-node number
       11                2                7411.3                   144           GWF-node number
       12                2               -7447.8                   144           GWF-node number
       13                2               -105.63                   120           GWF-node number
       14                2               -104.25                    31           GWF-node number
       15                2               -105.63                   120           GWF-node number
       16                2               -104.25                    31           GWF-node number
       17                2               -105.63                   120           GWF-node number
       18                2               -104.25                    31           GWF-node number
       19                2               -105.63                   120           GWF-node number
       20                2               -104.25                    31           GWF-node number
       21                2               -105.63                   120           GWF-node number
       22                2               -104.25                    31           GWF-node number
       23                2               -105.63                   120           GWF-node number
       24                2               -104.25                    31           GWF-node number
       25                2               -105.63                   120           GWF-node number
       26                2               -104.25                    31           GWF-node number
       27                2               -105.63                   120           GWF-node number
       28                2               -104.25                    31           GWF-node number
       29                2               -105.63                   120           GWF-node number
       30                2               -104.25                    31           GWF-node number
       31                2               -105.63                   120           GWF-node number
       32                2               -104.25                    31           GWF-node number
       33                2               -105.63                   120           GWF-node number
       34                2               -104.25                    31           GWF-node number
       35                2               -105.63                   120           GWF-node number
       36                2               -104.25                    31           GWF-node number
       37                2               -105.63                   120           GWF-node number
       38                2               -104.25                    31           GWF-node number
       39                2               -105.63                   120           GWF-node number
       40                2               -104.25                    31           GWF-node number
       41                2               -105.63                   120           GWF-node number
       42                2               -104.25                    31           GWF-node number
       43                2               -105.63                   120           GWF-node number
       44                2               -104.25                    31           GWF-node number
       45                2               -105.63                   120           GWF-node number
       46                2               -104.25                    31           GWF-node number
       47                2               -105.63                   120           GWF-node number
       48                2               -104.25                    31           GWF-node number
       49                2               -105.63                   120           GWF-node number
       50                2               -104.25                    31           GWF-node number
       51                2               -105.63                   120           GWF-node number
       52                2               -104.25                    31           GWF-node number
       53                2               -105.63                   120           GWF-node number
       54                2               -104.25                    31           GWF-node number
       55                2               -105.63                   120           GWF-node number
       56                2               -104.25                    31           GWF-node number
       57                2               -105.63                   120           GWF-node number
       58                2               -104.25                    31           GWF-node number
       59                2               -105.63                   120           GWF-node number
       60                2               -104.25                    31           GWF-node number
       61                2               -105.63                   120           GWF-node number
       62                2               -104.25                    31           GWF-node number
       63                2               -105.63                   120           GWF-node number
       64                2               -104.25                    31           GWF-node number
       65                2               -105.63                   120           GWF-node number
       66                2               -104.25                    31           GWF-node number
       67                2               -105.63                   120           GWF-node number
       68                2               -104.25                    31           GWF-node number
       69                2               -105.63                   120           GWF-node number
       70                2               -104.25                    31           GWF-node number
       71                2               -105.63                   120           GWF-node number
       72                2               -104.25                    31           GWF-node number
       73                2               -105.63                   120           GWF-node number
       74                2               -104.25                    31           GWF-node number
       75                2               -105.63                   120           GWF-node number
       76                2               -104.25                    31           GWF-node number
       77                2               -105.63                   120           GWF-node number
       78                2               -104.25                    31           GWF-node number
       79                2               -105.63                   120           GWF-node number
       80                2               -104.25                    31           GWF-node number
       81                2               -105.63                   120           GWF-node number
       82                2               -104.25                    31           GWF-node number
       83                2               -105.63                   120           GWF-node number
       84                2               -104.25                    31           GWF-node number
       85                2               -105.63                   120           GWF-node number
       86                2               -104.25                    31           GWF-node number
       87                2               -105.63                   120           GWF-node number
       88                2               -104.25                    31           GWF-node number
       89                2               -105.63                   120           GWF-node number
       90                2               -104.25                    31           GWF-node number
       91                2               -105.63                   120           GWF-node number
       92                2               -104.25                    31           GWF-node number
       93                2               -105.63                   120           GWF-node number
       94                2               -104.25                    31           GWF-node number
       95                2               -105.63                   120           GWF-node number
       96                2               -104.25                    31           GWF-node number
       97                2               -105.63                   120           GWF-node number
       98                2               -104.25                    31           GWF-node number
       99                2               -105.63                   120           GWF-node number
      100                2               -104.25                    31           GWF-node number
      101                2               -105.63                   120           GWF-node number
      102                2               -104.25                    31           GWF-node number
      103                2               -105.63                   120           GWF-node number
      104                2               -104.25                    31           GWF-node number
      105                2               -105.63                   120           GWF-node number
      106                2               -104.25                    31           GWF-node number
      107                2               -105.63                   120           GWF-node number
      108                2               -104.25                    31           GWF-node number
      109                2               -105.63                   120           GWF-node number
      110                2               -104.25                    31           GWF-node number
      111                2               -105.63                   120           GWF-node number
      112                2               -104.25                    31           GWF-node number
      113                2               -105.63                   120           GWF-node number
      114                2               -104.25                    31           GWF-node number
      115                2               -105.63                   120           GWF-node number
      116                2               -104.25                    31           GWF-node number
      117                2               -105.63                   120           GWF-node number
      118                2               -104.25                    31           GWF-node number
      119                2               -105.63                   120           GWF-node number
      120                2               -104.25                    31           GWF-node number
      121                2               -105.63                   120           GWF-node number
      122                2               -104.25                    31           GWF-node number
      123                2               -105.63                   120           GWF-node number
      124                2               -104.25                    31           GWF-node number
      125                2               -105.63                   120           GWF-node number
      126                2               -104.25                    31           GWF-node number
      127                2               -105.63                   120           GWF-node number
      128                2               -104.25                    31           GWF-node number
      129                2               -105.63                   120           GWF-node number
      130                2               -104.25                    31           GWF-node number
      131                2               -105.63                   120           GWF-node number
      132                2               -104.25                    31           GWF-node number
      133                2               -105.63                   120           GWF-node number
      134                2               -104.25                    31           GWF-node number
      135                2               -105.63                   120           GWF-node number
      136                2               -104.25                    31           GWF-node number
      137                2               -105.63                   120           GWF-node number
      138                2               -104.25                    31           GWF-node number
      139                2               -105.63                   120           GWF-node number
      140                2               -104.25                    31           GWF-node number
      141                2               -105.63                   120           GWF-node number
      142                2               -104.25                    31           GWF-node number
      143                2               -105.63                   120           GWF-node number
      144                2               -104.25                    31           GWF-node number
      145                2               -105.63                   120           GWF-node number
      146                2               -104.25                    31           GWF-node number
      147                2               -105.63                   120           GWF-node number
      148                2               -104.25                    31           GWF-node number
      149                2               -105.63                   120           GWF-node number
      150                2               -104.25                    31           GWF-node number
      151                2               -105.63                   120           GWF-node number
      152                2               -104.25                    31           GWF-node number
      153                2               -105.63                   120           GWF-node number
      154                2               -104.25                    31           GWF-node number
      155                2               -105.63                   120           GWF-node number
      156                2               -104.25                    31           GWF-node number
      157                2               -105.63                   120           GWF-node number
      158                2               -104.25                    31           GWF-node number
      159                2               -105.63                   120           GWF-node number
      160                2               -104.25                    31           GWF-node number
      161                2               -105.63                   120           GWF-node number
      162                2               -104.25                    31           GWF-node number
      163                2               -105.63                   120           GWF-node number
      164                2               -104.25                    31           GWF-node number
      165                2               -105.63                   120           GWF-node number
      166                2               -104.25                    31           GWF-node number
      167                2               -105.63                   120           GWF-node number
      168                2               -104.25                    31           GWF-node number
      169                2               -105.63                   120           GWF-node number
      170                2               -104.25                    31           GWF-node number
      171                2               -105.63                   120           GWF-node number
      172                2               -104.25                    31           GWF-node number
      173                2               -105.63                   120           GWF-node number
      174                2               -104.25                    31           GWF-node number
      175                2               -105.63                   120           GWF-node number
      176                2               -104.25                    31           GWF-node number
      177                2               -105.63                   120           GWF-node number
      178                2               -104.25                    31           GWF-node number
      179                2               -105.63                   120           GWF-node number
      180                2               -104.25                    31           GWF-node number
      181                2               -105.63                   120           GWF-node number
      182                2               -104.25                    31           GWF-node number
      183                2               -105.63                   120           GWF-node number
      184                2               -104.25                    31           GWF-node number
      185                2               -105.63                   120           GWF-node number
      186                2               -104.25                    31           GWF-node number
      187                2               -105.63                   120           GWF-node number
      188                2               -104.25                    31           GWF-node number
      189                2               -105.63                   120           GWF-node number
      190                2               -104.25                    31           GWF-node number
      191                2               -105.63                   120           GWF-node number
      192                2               -104.25                    31           GWF-node number
      193                2               -105.63                   120           GWF-node number
      194                2               -104.25                    31           GWF-node number
      195                2               -105.63                   120           GWF-node number
      196                2               -104.25                    31           GWF-node number
      197                2               -105.63                   120           GWF-node number
      198                2               -104.25                    31           GWF-node number
      199                2               -105.63                   120           GWF-node number
      200                2               -104.25                    31           GWF-node number
      201                2               -105.63                   120           GWF-node number
      202                2               -104.25                    31           GWF-node number
      203                2               -105.63                   120           GWF-node number
      204                2               -104.25                    31           GWF-node number
      205                2               -105.63                   120           GWF-node number
      206                2               -104.25                    31           GWF-node number
      207                2               -105.63                   120           GWF-node number
      208                2               -104.25                    31           GWF-node number
      209                2               -105.63                   120           GWF-node number
      210                2               -104.25                    31           GWF-node number
      211                2               -105.63                   120           GWF-node number
      212                2               -104.25                    31           GWF-node number
      213                2               -105.63                   120           GWF-node number
      214                2               -104.25                    31           GWF-node number
      215                2               -105.63                   120           GWF-node number
      216                2               -104.25                    31           GWF-node number
      217                2               -105.63                   120           GWF-node number
      218                2               -104.25                    31           GWF-node number
      219                2               -105.63                   120           GWF-node number
      220                2               -104.25                    31           GWF-node number
      221                2               -105.63                   120           GWF-node number
      222                2               -104.25                    31           GWF-node number
      223                2               -105.63                   120           GWF-node number
      224                2               -104.25                    31           GWF-node number
      225                2               -105.63                   120           GWF-node number
      226                2               -104.25                    31           GWF-node number
      227                2               -105.63                   120           GWF-node number
      228                2               -104.25                    31           GWF-node number
      229                2               -105.63                   120           GWF-node number
      230                2               -104.25                    31           GWF-node number
      231                2               -105.63                   120           GWF-node number
      232                2               -104.25                    31           GWF-node number
      233                2               -105.63                   120           GWF-node number
      234                2               -104.25                    31           GWF-node number
      235                2               -105.63                   120           GWF-node number
      236                2               -104.25                    31           GWF-node number
      237                2               -105.63                   120           GWF-node number
      238                2               -104.25                    31           GWF-node number
      239                2               -105.63                   120           GWF-node number
      240                2               -104.25                    31           GWF-node number
      241                2               -105.63                   120           GWF-node number
      242                2               -104.25                    31           GWF-node number
      243                2               -105.63                   120           GWF-node number
      244                2               -104.25                    31           GWF-node number
      245                2               -105.63                   120           GWF-node number
      246                2               -104.25                    31           GWF-node number
      247                2               -105.63                   120           GWF-node number
      248                2               -104.25                    31           GWF-node number
      249                2               -105.63                   120           GWF-node number
      250                2               -104.25                    31           GWF-node number
[...]
      297                2               -108.29                   120           GWF-node number
      298                2               -111.80                   144           GWF-node number
      299                2               -108.29                   120           GWF-node number
      300                2               -111.80                   144           GWF-node number
      301                2               -108.29                   120           GWF-node number
      302                2               -111.80                   144           GWF-node number
      303                2               -108.29                   120           GWF-node number
      304                2               -111.80                   144           GWF-node number
      305                2               -108.29                   120           GWF-node number
      306                2               -111.80                   144           GWF-node number
      307                2               -108.29                   120           GWF-node number
      308                2               -111.80                   144           GWF-node number
      309                2               -108.29                   120           GWF-node number
      310                2               -111.80                   144           GWF-node number
      311                2               -108.29                   120           GWF-node number
      312                2               -111.80                   144           GWF-node number
      313                2               -108.29                   120           GWF-node number
      314                2               -111.80                   144           GWF-node number
      315                2               -108.29                   120           GWF-node number
      316                2               -111.80                   144           GWF-node number
      317                2               -108.29                   120           GWF-node number
      318                2               -111.80                   144           GWF-node number
      319                2               -108.29                   120           GWF-node number
      320                2               -111.80                   144           GWF-node number
      321                2               -108.29                   120           GWF-node number
      322                2               -111.80                   144           GWF-node number
      323                2               -108.29                   120           GWF-node number
      324                2               -111.80                   144           GWF-node number
      325                2               -108.29                   120           GWF-node number
      326                2               -111.80                   144           GWF-node number
      327                2               -108.29                   120           GWF-node number
      328                2               -111.80                   144           GWF-node number
      329                2               -108.29                   120           GWF-node number
      330                2               -111.80                   144           GWF-node number
      331                2               -108.29                   120           GWF-node number
      332                2               -111.80                   144           GWF-node number
      333                2               -108.29                   120           GWF-node number
      334                2               -111.80                   144           GWF-node number
      335                2               -108.29                   120           GWF-node number
      336                2               -111.80                   144           GWF-node number
      337                2               -108.29                   120           GWF-node number
      338                2               -111.80                   144           GWF-node number
      339                2               -108.29                   120           GWF-node number
      340                2               -111.80                   144           GWF-node number
      341                2               -108.29                   120           GWF-node number
      342                2               -111.80                   144           GWF-node number
      343                2               -108.29                   120           GWF-node number
      344                2               -111.80                   144           GWF-node number
      345                2               -108.29                   120           GWF-node number
      346                2               -111.80                   144           GWF-node number
      347                2               -108.29                   120           GWF-node number
      348                2               -111.80                   144           GWF-node number
      349                2               -108.29                   120           GWF-node number
      350                2               -111.80                   144           GWF-node number
      351                2               -108.29                   120           GWF-node number
      352                2               -111.80                   144           GWF-node number
      353                2               -108.29                   120           GWF-node number
      354                2               -111.80                   144           GWF-node number
      355                2               -108.29                   120           GWF-node number
      356                2               -111.80                   144           GWF-node number
      357                2               -108.29                   120           GWF-node number
      358                2               -111.80                   144           GWF-node number
      359                2               -108.29                   120           GWF-node number
      360                2               -111.80                   144           GWF-node number
      361                2               -108.29                   120           GWF-node number
      362                2               -111.80                   144           GWF-node number
      363                2               -108.29                   120           GWF-node number
      364                2               -111.80                   144           GWF-node number
      365                2               -108.29                   120           GWF-node number
      366                2               -111.80                   144           GWF-node number
      367                2               -108.29                   120           GWF-node number
      368                2               -111.80                   144           GWF-node number
      369                2               -108.29                   120           GWF-node number
      370                2               -111.80                   144           GWF-node number
      371                2               -108.29                   120           GWF-node number
      372                2               -111.80                   144           GWF-node number
      373                2               -108.29                   120           GWF-node number
      374                2               -111.80                   144           GWF-node number
      375                2               -108.29                   120           GWF-node number
      376                2               -111.80                   144           GWF-node number
      377                2               -108.29                   120           GWF-node number
      378                2               -111.80                   144           GWF-node number
      379                2               -108.29                   120           GWF-node number
      380                2               -111.80                   144           GWF-node number
      381                2               -108.29                   120           GWF-node number
      382                2               -111.80                   144           GWF-node number
      383                2               -108.29                   120           GWF-node number
      384                2               -111.80                   144           GWF-node number
      385                2               -108.29                   120           GWF-node number
      386                2               -111.80                   144           GWF-node number
      387                2               -108.29                   120           GWF-node number
      388                2               -111.80                   144           GWF-node number
      389                2               -108.29                   120           GWF-node number
      390                2               -111.80                   144           GWF-node number
      391                2               -108.29                   120           GWF-node number
      392                2               -111.80                   144           GWF-node number
      393                2               -108.29                   120           GWF-node number
      394                2               -111.80                   144           GWF-node number
      395                2               -108.29                   120           GWF-node number
      396                2               -111.80                   144           GWF-node number
      397                2               -108.29                   120           GWF-node number
      398                2               -111.80                   144           GWF-node number
      399                2               -108.29                   120           GWF-node number
      400                2               -111.80                   144           GWF-node number
      401                2               -108.29                   120           GWF-node number
      402                2               -111.80                   144           GWF-node number
      403                2               -108.29                   120           GWF-node number
      404                2               -111.80                   144           GWF-node number
      405                2               -108.29                   120           GWF-node number
      406                2               -111.80                   144           GWF-node number
      407                2               -108.29                   120           GWF-node number
      408                2               -111.80                   144           GWF-node number
      409                2               -108.29                   120           GWF-node number
      410                2               -111.80                   144           GWF-node number
      411                2               -108.29                   120           GWF-node number
      412                2               -111.80                   144           GWF-node number
      413                2               -108.29                   120           GWF-node number
      414                2               -111.80                   144           GWF-node number
      415                2               -108.29                   120           GWF-node number
      416                2               -111.80                   144           GWF-node number
      417                2               -108.29                   120           GWF-node number
      418                2               -111.80                   144           GWF-node number
      419                2               -108.29                   120           GWF-node number
      420                2               -111.80                   144           GWF-node number
      421                2               -108.29                   120           GWF-node number
      422                2               -111.80                   144           GWF-node number
      423                2               -108.29                   120           GWF-node number
      424                2               -111.80                   144           GWF-node number
      425                2               -108.29                   120           GWF-node number
      426                2               -111.80                   144           GWF-node number
      427                2               -108.29                   120           GWF-node number
      428                2               -111.80                   144           GWF-node number
      429                2               -108.29                   120           GWF-node number
      430                2               -111.80                   144           GWF-node number
      431                2               -108.29                   120           GWF-node number
      432                2               -111.80                   144           GWF-node number
      433                2               -108.29                   120           GWF-node number
      434                2               -111.80                   144           GWF-node number
      435                2               -108.29                   120           GWF-node number
      436                2               -111.80                   144           GWF-node number
      437                2               -108.29                   120           GWF-node number
      438                2               -111.80                   144           GWF-node number
      439                2               -108.29                   120           GWF-node number
      440                2               -111.80                   144           GWF-node number
      441                2               -108.29                   120           GWF-node number
      442                2               -111.80                   144           GWF-node number
      443                2               -108.29                   120           GWF-node number
      444                2               -111.80                   144           GWF-node number
      445                2               -108.29                   120           GWF-node number
      446                2               -111.80                   144           GWF-node number
      447                2               -108.29                   120           GWF-node number
      448                2               -111.80                   144           GWF-node number
      449                2               -108.29                   120           GWF-node number
      450                2               -111.80                   144           GWF-node number
      451                2               -108.29                   120           GWF-node number
      452                2               -111.80                   144           GWF-node number
      453                2               -108.29                   120           GWF-node number
      454                2               -111.80                   144           GWF-node number
      455                2               -108.29                   120           GWF-node number
      456                2               -111.80                   144           GWF-node number
      457                2               -108.29                   120           GWF-node number
      458                2               -111.80                   144           GWF-node number
      459                2               -108.29                   120           GWF-node number
      460                2               -111.80                   144           GWF-node number
      461                2               -108.29                   120           GWF-node number
      462                2               -111.80                   144           GWF-node number
      463                2               -108.29                   120           GWF-node number
      464                2               -111.80                   144           GWF-node number
      465                2               -108.29                   120           GWF-node number
      466                2               -111.80                   144           GWF-node number
      467                2               -108.29                   120           GWF-node number
      468                2               -111.80                   144           GWF-node number
      469                2               -108.29                   120           GWF-node number
      470                2               -111.80                   144           GWF-node number
      471                2               -108.29                   120           GWF-node number
      472                2               -111.80                   144           GWF-node number
      473                2               -108.29                   120           GWF-node number
      474                2               -111.80                   144           GWF-node number
      475                2               -108.29                   120           GWF-node number
      476                2               -111.80                   144           GWF-node number
      477                2               -108.29                   120           GWF-node number
      478                2               -111.80                   144           GWF-node number
      479                2               -108.29                   120           GWF-node number
      480                2               -111.80                   144           GWF-node number
      481                2               -108.29                   120           GWF-node number
      482                2               -111.80                   144           GWF-node number
      483                2               -108.29                   120           GWF-node number
      484                2               -111.80                   144           GWF-node number
      485                2               -108.29                   120           GWF-node number
      486                2               -111.80                   144           GWF-node number
      487                2               -108.29                   120           GWF-node number
      488                2               -111.80                   144           GWF-node number
      489                2               -108.29                   120           GWF-node number
      490                2               -111.80                   144           GWF-node number
      491                2               -108.29                   120           GWF-node number
      492                2               -111.80                   144           GWF-node number
      493                2               -108.29                   120           GWF-node number
      494                2               -111.80                   144           GWF-node number
      495                2               -108.29                   120           GWF-node number
      496                2               -111.80                   144           GWF-node number
      497                2               -108.29                   120           GWF-node number
      498                2               -111.80                   144           GWF-node number
      499                2               -108.29                   120           GWF-node number
      500                2               -111.80                   144           GWF-node number

ERROR REPORT:

Last-accessed solution: SLN_1
Last-accessed model: GWF_1
Last-accessed package: RECHARGE
 Solution Group 1 did not converge for stress period 2 and time step 1
 Stopping due to error(s)
