
 OPENED mf2015.nam
 FILE TYPE:NAM   UNIT 1001   STATUS:OLD                 
 FORMAT:FORMATTED              ACCESS:SEQUENTIAL          
 ACTION:READ                

                                  MODFLOW-2015
                U.S. GEOLOGICAL SURVEY MODULAR HYDROLOGIC MODEL
                              SIMULATION LIST FILE

 READING SIMULATION OPTIONS
 END OF SIMULATION OPTIONS

 READING SIMULATION TIMING

 OPENED simulation.tdis
 FILE TYPE:TDIS   UNIT 1002   STATUS:OLD                 
 FORMAT:FORMATTED              ACCESS:SEQUENTIAL          
 ACTION:READ                


 TDIS -- TEMPORAL DISCRETIZATION PACKAGE,
 VERSION 1 : 11/13/2014 - INPUT READ FROM UNIT 1002
 PROCESSING TDIS OPTIONS
    MODEL TIME UNIT IS DAYS
 END OF TDIS OPTIONS
 PROCESSING TDIS DIMENSIONS
    3 STRESS PERIOD(S) IN SIMULATION
 END OF TDIS DIMENSIONS
 PROCESSING TDIS STRESS_PERIODS


 STRESS PERIOD     LENGTH       TIME STEPS     MULTIPLIER FOR DELT
 ----------------------------------------------------------------------------
        1        1.0000000          1                    1.000
        2        10.000000         10                    1.000
        3        10.000000         10                    1.000
 END OF TDIS STRESS_PERIODS
 END OF SIMULATION TIMING

 READING SIMULATION MODELS
 #modeltype      namefile         modelname
 END OF SIMULATION MODELS

 READING SIMULATION EXCHANGES
 END OF SIMULATION EXCHANGES

 READING SOLUTION_GROUP

 Creating solution: SLN_1               

 OPENED model.sms
 FILE TYPE:SMS   UNIT 1003   STATUS:OLD                 
 FORMAT:FORMATTED              ACCESS:SEQUENTIAL          
 ACTION:READ                

 END OF SIMULATION SOLUTION_GROUP

 SMS -- SPARSE MATRIX SOLVER PACKAGE, VERSION 8, 5/2/2005
         INPUT READ FROM UNIT 1003

 PROCESSING SMS OPTIONS
 END OF SMS OPTIONS

 PROCESSING SMS NONLINEAR
 END OF SMS NONLINEAR DATA
 OUTER ITERATION CONVERGENCE CRITERION (HCLOSE) =    0.100000E-03
 MAXIMUM NUMBER OF OUTER ITERATIONS (MXITER)     =       500
 SOLVER PRINTOUT INDEX             (IPRSMS)      =         1
 NONLINEAR ITERATION METHOD    (NONLINMETH)      =         0
 LINEAR SOLUTION METHOD           (LINMETH)      =         2
 ***PICARD LINEARIZATION WILL BE USED***
 
 ***PCGU LINEAR SOLVER WILL BE USED***

 PCGU -- UNSTRUCTURED CONJUGATE-GRADIENT SOLUTION PACKAGE, VERSION 8.02, 08/13/2013

 PROCESSING PCGU DATA
 END OF PCGU

              SOLUTION BY THE CONJUGATE-GRADIENT METHOD
 ------------------------------------------------------------------
 MAXIMUM OF      1 CALLS OF SOLUTION ROUTINE
 MAXIMUM OF    100 INTERNAL ITERATIONS PER CALL TO SOLUTION ROUTINE
 LINEAR ACCELERATION METHOD            = CG        
 MATRIX PRECONDITIONING TYPE           = MOD. INCOMPLETE LU  
 MATRIX SCALING APPROACH               = NO SCALING          
 MATRIX REORDERING APPROACH            = ORIGINAL ORDERING        
 HEAD CHANGE CRITERION FOR CLOSURE     =    0.10000E-03
 RESIDUAL CHANGE CRITERION FOR CLOSURE =    0.10000E-02
 RESIDUAL CONVERGENCE OPTION           =        0
 RESIDUAL CONVERGENCE NORM             = INFINITY NORM   
 RELAXATION FACTOR                     =    0.97000E+00
  ONLY USED WITH MILU0 PRECONDITIONER


 
1
                            STRESS PERIOD NO.    1, LENGTH =  1.0000000    
                            -----------------------------------------------

                              NUMBER OF TIME STEPS =     1

                               MULTIPLIER FOR DELT =     1.000

                            INITIAL TIME STEP SIZE =  1.0000000    

PICARD ITERATION:      1


 Outer-Iteration  Inner-Iteration    Maximum Head Change  Maximum Head Change
     Number           Count               Value              Location
        1               16                442.60                   290           GWF-node number
        2               22               -304.58                   290           GWF-node number
        3               18                5.9443                    20           GWF-node number
        4               16               -1.1918                     7           GWF-node number
        5               14               0.14381                   143           GWF-node number
        6               12              -0.12340E-01               143           GWF-node number
        7                8               0.78625E-03               143           GWF-node number
        8                3              -0.29869E-04               143           GWF-node number


     8 CALLS TO NUMERICAL SOLUTION  IN TIME STEP   1 STRESS PERIOD   1

 TOTAL OF       8OUTER ITERATIONS
  MAXIMUM CHANGE FOR EACH ITERATION:
   MAX. CHANGE        NODE  MAX. CHANGE        NODE  MAX. CHANGE        NODE  MAX. CHANGE        NODE  MAX. CHANGE        NODE
 ------------------------------------------------------------------------------------------------------------------------------------
    442.60    ,        290  -304.58    ,        290   5.9443    ,         20  -1.1918    ,          7  0.14381    ,        143
  -0.12340E-01,        143  0.78625E-03,        143 -0.29869E-04,        143

 Outer-Iteration  Inner-Iteration    Maximum Head Change  Maximum Head Change
     Number           Count               Value              Location
        1                1               0.58172E-05               157           GWF-node number


     1 CALLS TO NUMERICAL SOLUTION  IN TIME STEP   1 STRESS PERIOD   1

 TOTAL OF       1OUTER ITERATIONS
  MAXIMUM CHANGE FOR EACH ITERATION:
   MAX. CHANGE        NODE  MAX. CHANGE        NODE  MAX. CHANGE        NODE  MAX. CHANGE        NODE  MAX. CHANGE        NODE
 ------------------------------------------------------------------------------------------------------------------------------------
   0.58172E-05,        157
1
                            STRESS PERIOD NO.    2, LENGTH =  10.000000    
                            -----------------------------------------------

                              NUMBER OF TIME STEPS =    10

                               MULTIPLIER FOR DELT =     1.000

                            INITIAL TIME STEP SIZE =  1.0000000    

PICARD ITERATION:      1


 Outer-Iteration  Inner-Iteration    Maximum Head Change  Maximum Head Change
     Number           Count               Value              Location
        1                5               -77.327                   184           GWF-node number
        2                1               0.12973E-04                31           GWF-node number


     2 CALLS TO NUMERICAL SOLUTION  IN TIME STEP   1 STRESS PERIOD   2

 TOTAL OF       2OUTER ITERATIONS
  MAXIMUM CHANGE FOR EACH ITERATION:
   MAX. CHANGE        NODE  MAX. CHANGE        NODE  MAX. CHANGE        NODE  MAX. CHANGE        NODE  MAX. CHANGE        NODE
 ------------------------------------------------------------------------------------------------------------------------------------
   -77.327    ,        184  0.12973E-04,         31

 Outer-Iteration  Inner-Iteration    Maximum Head Change  Maximum Head Change
     Number           Count               Value              Location
        1                4               -44.990                   184           GWF-node number
        2                4                34.231                   184           GWF-node number
        3                1              -0.34093E-04               184           GWF-node number


     3 CALLS TO NUMERICAL SOLUTION  IN TIME STEP   1 STRESS PERIOD   2

 TOTAL OF       3OUTER ITERATIONS
  MAXIMUM CHANGE FOR EACH ITERATION:
   MAX. CHANGE        NODE  MAX. CHANGE        NODE  MAX. CHANGE        NODE  MAX. CHANGE        NODE  MAX. CHANGE        NODE
 ------------------------------------------------------------------------------------------------------------------------------------
   -44.990    ,        184   34.231    ,        184 -0.34093E-04,        184

PICARD ITERATION:      1


 Outer-Iteration  Inner-Iteration    Maximum Head Change  Maximum Head Change
     Number           Count               Value              Location
        1                4               -4.1209                   274           GWF-node number
        2                1              -0.90427E-05                33           GWF-node number


     2 CALLS TO NUMERICAL SOLUTION  IN TIME STEP   2 STRESS PERIOD   2

 TOTAL OF       2OUTER ITERATIONS
  MAXIMUM CHANGE FOR EACH ITERATION:
   MAX. CHANGE        NODE  MAX. CHANGE        NODE  MAX. CHANGE        NODE  MAX. CHANGE        NODE  MAX. CHANGE        NODE
 ------------------------------------------------------------------------------------------------------------------------------------
   -4.1209    ,        274 -0.90427E-05,         33

 Outer-Iteration  Inner-Iteration    Maximum Head Change  Maximum Head Change
     Number           Count               Value              Location
        1                4               -2.7945                   274           GWF-node number
        2                1              -0.85958E-05                33           GWF-node number


     2 CALLS TO NUMERICAL SOLUTION  IN TIME STEP   2 STRESS PERIOD   2

 TOTAL OF       2OUTER ITERATIONS
  MAXIMUM CHANGE FOR EACH ITERATION:
   MAX. CHANGE        NODE  MAX. CHANGE        NODE  MAX. CHANGE        NODE  MAX. CHANGE        NODE  MAX. CHANGE        NODE
 ------------------------------------------------------------------------------------------------------------------------------------
   -2.7945    ,        274 -0.85958E-05,         33

PICARD ITERATION:      1


 Outer-Iteration  Inner-Iteration    Maximum Head Change  Maximum Head Change
     Number           Count               Value              Location
        1                4               -2.0077                   274           GWF-node number
        2                1              -0.81980E-05                33           GWF-node number


     2 CALLS TO NUMERICAL SOLUTION  IN TIME STEP   3 STRESS PERIOD   2

 TOTAL OF       2OUTER ITERATIONS
  MAXIMUM CHANGE FOR EACH ITERATION:
   MAX. CHANGE        NODE  MAX. CHANGE        NODE  MAX. CHANGE        NODE  MAX. CHANGE        NODE  MAX. CHANGE        NODE
 ------------------------------------------------------------------------------------------------------------------------------------
   -2.0077    ,        274 -0.81980E-05,         33

 Outer-Iteration  Inner-Iteration    Maximum Head Change  Maximum Head Change
     Number           Count               Value              Location
        1                4               -1.5143                   274           GWF-node number
        2                1              -0.78419E-05                33           GWF-node number


     2 CALLS TO NUMERICAL SOLUTION  IN TIME STEP   3 STRESS PERIOD   2

 TOTAL OF       2OUTER ITERATIONS
  MAXIMUM CHANGE FOR EACH ITERATION:
   MAX. CHANGE        NODE  MAX. CHANGE        NODE  MAX. CHANGE        NODE  MAX. CHANGE        NODE  MAX. CHANGE        NODE
 ------------------------------------------------------------------------------------------------------------------------------------
   -1.5143    ,        274 -0.78419E-05,         33

PICARD ITERATION:      1


 Outer-Iteration  Inner-Iteration    Maximum Head Change  Maximum Head Change
     Number           Count               Value              Location
        1                4               -1.1887                   274           GWF-node number
        2                1              -0.75210E-05                33           GWF-node number


     2 CALLS TO NUMERICAL SOLUTION  IN TIME STEP   4 STRESS PERIOD   2

 TOTAL OF       2OUTER ITERATIONS
  MAXIMUM CHANGE FOR EACH ITERATION:
   MAX. CHANGE        NODE  MAX. CHANGE        NODE  MAX. CHANGE        NODE  MAX. CHANGE        NODE  MAX. CHANGE        NODE
 ------------------------------------------------------------------------------------------------------------------------------------
   -1.1887    ,        274 -0.75210E-05,         33

 Outer-Iteration  Inner-Iteration    Maximum Head Change  Maximum Head Change
     Number           Count               Value              Location
        1                4              -0.96348                   274           GWF-node number
        2                1              -0.72296E-05                33           GWF-node number


     2 CALLS TO NUMERICAL SOLUTION  IN TIME STEP   4 STRESS PERIOD   2

 TOTAL OF       2OUTER ITERATIONS
  MAXIMUM CHANGE FOR EACH ITERATION:
   MAX. CHANGE        NODE  MAX. CHANGE        NODE  MAX. CHANGE        NODE  MAX. CHANGE        NODE  MAX. CHANGE        NODE
 ------------------------------------------------------------------------------------------------------------------------------------
  -0.96348    ,        274 -0.72296E-05,         33

PICARD ITERATION:      1


 Outer-Iteration  Inner-Iteration    Maximum Head Change  Maximum Head Change
     Number           Count               Value              Location
        1                4              -0.80648                   289           GWF-node number
        2                1              -0.69633E-05                33           GWF-node number


     2 CALLS TO NUMERICAL SOLUTION  IN TIME STEP   5 STRESS PERIOD   2

 TOTAL OF       2OUTER ITERATIONS
  MAXIMUM CHANGE FOR EACH ITERATION:
   MAX. CHANGE        NODE  MAX. CHANGE        NODE  MAX. CHANGE        NODE  MAX. CHANGE        NODE  MAX. CHANGE        NODE
 ------------------------------------------------------------------------------------------------------------------------------------
  -0.80648    ,        289 -0.69633E-05,         33

 Outer-Iteration  Inner-Iteration    Maximum Head Change  Maximum Head Change
     Number           Count               Value              Location
        1                3              -0.70406                   289           GWF-node number
        2                1              -0.67205E-05                33           GWF-node number


     2 CALLS TO NUMERICAL SOLUTION  IN TIME STEP   5 STRESS PERIOD   2

 TOTAL OF       2OUTER ITERATIONS
  MAXIMUM CHANGE FOR EACH ITERATION:
   MAX. CHANGE        NODE  MAX. CHANGE        NODE  MAX. CHANGE        NODE  MAX. CHANGE        NODE  MAX. CHANGE        NODE
 ------------------------------------------------------------------------------------------------------------------------------------
  -0.70406    ,        289 -0.67205E-05,         33

PICARD ITERATION:      1


 Outer-Iteration  Inner-Iteration    Maximum Head Change  Maximum Head Change
     Number           Count               Value              Location
        1                3              -0.61608                   289           GWF-node number
        2                1              -0.64940E-05                33           GWF-node number


     2 CALLS TO NUMERICAL SOLUTION  IN TIME STEP   6 STRESS PERIOD   2

 TOTAL OF       2OUTER ITERATIONS
  MAXIMUM CHANGE FOR EACH ITERATION:
   MAX. CHANGE        NODE  MAX. CHANGE        NODE  MAX. CHANGE        NODE  MAX. CHANGE        NODE  MAX. CHANGE        NODE
 ------------------------------------------------------------------------------------------------------------------------------------
  -0.61608    ,        289 -0.64940E-05,         33

 Outer-Iteration  Inner-Iteration    Maximum Head Change  Maximum Head Change
     Number           Count               Value              Location
        1                3              -0.54079                   289           GWF-node number
        2                1              -0.62839E-05                33           GWF-node number


     2 CALLS TO NUMERICAL SOLUTION  IN TIME STEP   6 STRESS PERIOD   2

 TOTAL OF       2OUTER ITERATIONS
  MAXIMUM CHANGE FOR EACH ITERATION:
   MAX. CHANGE        NODE  MAX. CHANGE        NODE  MAX. CHANGE        NODE  MAX. CHANGE        NODE  MAX. CHANGE        NODE
 ------------------------------------------------------------------------------------------------------------------------------------
  -0.54079    ,        289 -0.62839E-05,         33

PICARD ITERATION:      1


 Outer-Iteration  Inner-Iteration    Maximum Head Change  Maximum Head Change
     Number           Count               Value              Location
        1                3              -0.47648                   289           GWF-node number
        2                1               0.61439E-05                35           GWF-node number


     2 CALLS TO NUMERICAL SOLUTION  IN TIME STEP   7 STRESS PERIOD   2

 TOTAL OF       2OUTER ITERATIONS
  MAXIMUM CHANGE FOR EACH ITERATION:
   MAX. CHANGE        NODE  MAX. CHANGE        NODE  MAX. CHANGE        NODE  MAX. CHANGE        NODE  MAX. CHANGE        NODE
 ------------------------------------------------------------------------------------------------------------------------------------
  -0.47648    ,        289  0.61439E-05,         35

 Outer-Iteration  Inner-Iteration    Maximum Head Change  Maximum Head Change
     Number           Count               Value              Location
        1                3              -0.42158                   289           GWF-node number
        2                1               0.60817E-05                35           GWF-node number


     2 CALLS TO NUMERICAL SOLUTION  IN TIME STEP   7 STRESS PERIOD   2

 TOTAL OF       2OUTER ITERATIONS
  MAXIMUM CHANGE FOR EACH ITERATION:
   MAX. CHANGE        NODE  MAX. CHANGE        NODE  MAX. CHANGE        NODE  MAX. CHANGE        NODE  MAX. CHANGE        NODE
 ------------------------------------------------------------------------------------------------------------------------------------
  -0.42158    ,        289  0.60817E-05,         35

PICARD ITERATION:      1


 Outer-Iteration  Inner-Iteration    Maximum Head Change  Maximum Head Change
     Number           Count               Value              Location
        1                3              -0.40415                   184           GWF-node number
        2                1               0.60216E-05                35           GWF-node number


     2 CALLS TO NUMERICAL SOLUTION  IN TIME STEP   8 STRESS PERIOD   2

 TOTAL OF       2OUTER ITERATIONS
  MAXIMUM CHANGE FOR EACH ITERATION:
   MAX. CHANGE        NODE  MAX. CHANGE        NODE  MAX. CHANGE        NODE  MAX. CHANGE        NODE  MAX. CHANGE        NODE
 ------------------------------------------------------------------------------------------------------------------------------------
  -0.40415    ,        184  0.60216E-05,         35

 Outer-Iteration  Inner-Iteration    Maximum Head Change  Maximum Head Change
     Number           Count               Value              Location
        1                3              -0.40367                   184           GWF-node number
        2                1               0.59635E-05                35           GWF-node number


     2 CALLS TO NUMERICAL SOLUTION  IN TIME STEP   8 STRESS PERIOD   2

 TOTAL OF       2OUTER ITERATIONS
  MAXIMUM CHANGE FOR EACH ITERATION:
   MAX. CHANGE        NODE  MAX. CHANGE        NODE  MAX. CHANGE        NODE  MAX. CHANGE        NODE  MAX. CHANGE        NODE
 ------------------------------------------------------------------------------------------------------------------------------------
  -0.40367    ,        184  0.59635E-05,         35

PICARD ITERATION:      1


 Outer-Iteration  Inner-Iteration    Maximum Head Change  Maximum Head Change
     Number           Count               Value              Location
        1                3              -0.40309                   184           GWF-node number
        2                1               0.59072E-05                35           GWF-node number


     2 CALLS TO NUMERICAL SOLUTION  IN TIME STEP   9 STRESS PERIOD   2

 TOTAL OF       2OUTER ITERATIONS
  MAXIMUM CHANGE FOR EACH ITERATION:
   MAX. CHANGE        NODE  MAX. CHANGE        NODE  MAX. CHANGE        NODE  MAX. CHANGE        NODE  MAX. CHANGE        NODE
 ------------------------------------------------------------------------------------------------------------------------------------
  -0.40309    ,        184  0.59072E-05,         35

 Outer-Iteration  Inner-Iteration    Maximum Head Change  Maximum Head Change
     Number           Count               Value              Location
        1                3              -0.40243                   184           GWF-node number
        2                1               0.58525E-05                35           GWF-node number


     2 CALLS TO NUMERICAL SOLUTION  IN TIME STEP   9 STRESS PERIOD   2

 TOTAL OF       2OUTER ITERATIONS
  MAXIMUM CHANGE FOR EACH ITERATION:
   MAX. CHANGE        NODE  MAX. CHANGE        NODE  MAX. CHANGE        NODE  MAX. CHANGE        NODE  MAX. CHANGE        NODE
 ------------------------------------------------------------------------------------------------------------------------------------
  -0.40243    ,        184  0.58525E-05,         35

PICARD ITERATION:      1


 Outer-Iteration  Inner-Iteration    Maximum Head Change  Maximum Head Change
     Number           Count               Value              Location
        1                3              -0.40170                   184           GWF-node number
        2                1               0.57995E-05                35           GWF-node number


     2 CALLS TO NUMERICAL SOLUTION  IN TIME STEP  10 STRESS PERIOD   2

 TOTAL OF       2OUTER ITERATIONS
  MAXIMUM CHANGE FOR EACH ITERATION:
   MAX. CHANGE        NODE  MAX. CHANGE        NODE  MAX. CHANGE        NODE  MAX. CHANGE        NODE  MAX. CHANGE        NODE
 ------------------------------------------------------------------------------------------------------------------------------------
  -0.40170    ,        184  0.57995E-05,         35

 Outer-Iteration  Inner-Iteration    Maximum Head Change  Maximum Head Change
     Number           Count               Value              Location
        1                3              -0.40092                   184           GWF-node number
        2                1               0.57479E-05                35           GWF-node number


     2 CALLS TO NUMERICAL SOLUTION  IN TIME STEP  10 STRESS PERIOD   2

 TOTAL OF       2OUTER ITERATIONS
  MAXIMUM CHANGE FOR EACH ITERATION:
   MAX. CHANGE        NODE  MAX. CHANGE        NODE  MAX. CHANGE        NODE  MAX. CHANGE        NODE  MAX. CHANGE        NODE
 ------------------------------------------------------------------------------------------------------------------------------------
  -0.40092    ,        184  0.57479E-05,         35
1
                            STRESS PERIOD NO.    3, LENGTH =  10.000000    
                            -----------------------------------------------

                              NUMBER OF TIME STEPS =    10

                               MULTIPLIER FOR DELT =     1.000

                            INITIAL TIME STEP SIZE =  1.0000000    

PICARD ITERATION:      1


 Outer-Iteration  Inner-Iteration    Maximum Head Change  Maximum Head Change
     Number           Count               Value              Location
        1                3              -0.40008                   184           GWF-node number
        2                1               0.56978E-05                35           GWF-node number


     2 CALLS TO NUMERICAL SOLUTION  IN TIME STEP   1 STRESS PERIOD   3

 TOTAL OF       2OUTER ITERATIONS
  MAXIMUM CHANGE FOR EACH ITERATION:
   MAX. CHANGE        NODE  MAX. CHANGE        NODE  MAX. CHANGE        NODE  MAX. CHANGE        NODE  MAX. CHANGE        NODE
 ------------------------------------------------------------------------------------------------------------------------------------
  -0.40008    ,        184  0.56978E-05,         35

 Outer-Iteration  Inner-Iteration    Maximum Head Change  Maximum Head Change
     Number           Count               Value              Location
        1                3              -0.39920                   184           GWF-node number
        2                1               0.56490E-05                35           GWF-node number


     2 CALLS TO NUMERICAL SOLUTION  IN TIME STEP   1 STRESS PERIOD   3

 TOTAL OF       2OUTER ITERATIONS
  MAXIMUM CHANGE FOR EACH ITERATION:
   MAX. CHANGE        NODE  MAX. CHANGE        NODE  MAX. CHANGE        NODE  MAX. CHANGE        NODE  MAX. CHANGE        NODE
 ------------------------------------------------------------------------------------------------------------------------------------
  -0.39920    ,        184  0.56490E-05,         35

PICARD ITERATION:      1


 Outer-Iteration  Inner-Iteration    Maximum Head Change  Maximum Head Change
     Number           Count               Value              Location
        1                3              -0.39828                   184           GWF-node number
        2                1               0.56015E-05                35           GWF-node number


     2 CALLS TO NUMERICAL SOLUTION  IN TIME STEP   2 STRESS PERIOD   3

 TOTAL OF       2OUTER ITERATIONS
  MAXIMUM CHANGE FOR EACH ITERATION:
   MAX. CHANGE        NODE  MAX. CHANGE        NODE  MAX. CHANGE        NODE  MAX. CHANGE        NODE  MAX. CHANGE        NODE
 ------------------------------------------------------------------------------------------------------------------------------------
  -0.39828    ,        184  0.56015E-05,         35

 Outer-Iteration  Inner-Iteration    Maximum Head Change  Maximum Head Change
     Number           Count               Value              Location
        1                3              -0.39734                   184           GWF-node number
        2                1               0.55552E-05                35           GWF-node number


     2 CALLS TO NUMERICAL SOLUTION  IN TIME STEP   2 STRESS PERIOD   3

 TOTAL OF       2OUTER ITERATIONS
  MAXIMUM CHANGE FOR EACH ITERATION:
   MAX. CHANGE        NODE  MAX. CHANGE        NODE  MAX. CHANGE        NODE  MAX. CHANGE        NODE  MAX. CHANGE        NODE
 ------------------------------------------------------------------------------------------------------------------------------------
  -0.39734    ,        184  0.55552E-05,         35

PICARD ITERATION:      1


 Outer-Iteration  Inner-Iteration    Maximum Head Change  Maximum Head Change
     Number           Count               Value              Location
        1                3              -0.39636                   184           GWF-node number
        2                1               0.55101E-05                35           GWF-node number


     2 CALLS TO NUMERICAL SOLUTION  IN TIME STEP   3 STRESS PERIOD   3

 TOTAL OF       2OUTER ITERATIONS
  MAXIMUM CHANGE FOR EACH ITERATION:
   MAX. CHANGE        NODE  MAX. CHANGE        NODE  MAX. CHANGE        NODE  MAX. CHANGE        NODE  MAX. CHANGE        NODE
 ------------------------------------------------------------------------------------------------------------------------------------
  -0.39636    ,        184  0.55101E-05,         35

 Outer-Iteration  Inner-Iteration    Maximum Head Change  Maximum Head Change
     Number           Count               Value              Location
        1                3              -0.39537                   184           GWF-node number
        2                1               0.54660E-05                35           GWF-node number


     2 CALLS TO NUMERICAL SOLUTION  IN TIME STEP   3 STRESS PERIOD   3

 TOTAL OF       2OUTER ITERATIONS
  MAXIMUM CHANGE FOR EACH ITERATION:
   MAX. CHANGE        NODE  MAX. CHANGE        NODE  MAX. CHANGE        NODE  MAX. CHANGE        NODE  MAX. CHANGE        NODE
 ------------------------------------------------------------------------------------------------------------------------------------
  -0.39537    ,        184  0.54660E-05,         35

PICARD ITERATION:      1


 Outer-Iteration  Inner-Iteration    Maximum Head Change  Maximum Head Change
     Number           Count               Value              Location
        1                3              -0.39435                   184           GWF-node number
        2                1               0.54229E-05                35           GWF-node number


     2 CALLS TO NUMERICAL SOLUTION  IN TIME STEP   4 STRESS PERIOD   3

 TOTAL OF       2OUTER ITERATIONS
  MAXIMUM CHANGE FOR EACH ITERATION:
   MAX. CHANGE        NODE  MAX. CHANGE        NODE  MAX. CHANGE        NODE  MAX. CHANGE        NODE  MAX. CHANGE        NODE
 ------------------------------------------------------------------------------------------------------------------------------------
  -0.39435    ,        184  0.54229E-05,         35

 Outer-Iteration  Inner-Iteration    Maximum Head Change  Maximum Head Change
     Number           Count               Value              Location
        1                3              -0.39332                   184           GWF-node number
        2                1               0.53809E-05                35           GWF-node number


     2 CALLS TO NUMERICAL SOLUTION  IN TIME STEP   4 STRESS PERIOD   3

 TOTAL OF       2OUTER ITERATIONS
  MAXIMUM CHANGE FOR EACH ITERATION:
   MAX. CHANGE        NODE  MAX. CHANGE        NODE  MAX. CHANGE        NODE  MAX. CHANGE        NODE  MAX. CHANGE        NODE
 ------------------------------------------------------------------------------------------------------------------------------------
  -0.39332    ,        184  0.53809E-05,         35

PICARD ITERATION:      1


 Outer-Iteration  Inner-Iteration    Maximum Head Change  Maximum Head Change
     Number           Count               Value              Location
        1                3              -0.39227                   184           GWF-node number
        2                1               0.53398E-05                35           GWF-node number


     2 CALLS TO NUMERICAL SOLUTION  IN TIME STEP   5 STRESS PERIOD   3

 TOTAL OF       2OUTER ITERATIONS
  MAXIMUM CHANGE FOR EACH ITERATION:
   MAX. CHANGE        NODE  MAX. CHANGE        NODE  MAX. CHANGE        NODE  MAX. CHANGE        NODE  MAX. CHANGE        NODE
 ------------------------------------------------------------------------------------------------------------------------------------
  -0.39227    ,        184  0.53398E-05,         35

 Outer-Iteration  Inner-Iteration    Maximum Head Change  Maximum Head Change
     Number           Count               Value              Location
        1                3              -0.39121                   184           GWF-node number
        2                1               0.52996E-05                35           GWF-node number


     2 CALLS TO NUMERICAL SOLUTION  IN TIME STEP   5 STRESS PERIOD   3

 TOTAL OF       2OUTER ITERATIONS
  MAXIMUM CHANGE FOR EACH ITERATION:
   MAX. CHANGE        NODE  MAX. CHANGE        NODE  MAX. CHANGE        NODE  MAX. CHANGE        NODE  MAX. CHANGE        NODE
 ------------------------------------------------------------------------------------------------------------------------------------
  -0.39121    ,        184  0.52996E-05,         35

PICARD ITERATION:      1


 Outer-Iteration  Inner-Iteration    Maximum Head Change  Maximum Head Change
     Number           Count               Value              Location
        1                3              -0.39014                   184           GWF-node number
        2                1               0.52603E-05                35           GWF-node number


     2 CALLS TO NUMERICAL SOLUTION  IN TIME STEP   6 STRESS PERIOD   3

 TOTAL OF       2OUTER ITERATIONS
  MAXIMUM CHANGE FOR EACH ITERATION:
   MAX. CHANGE        NODE  MAX. CHANGE        NODE  MAX. CHANGE        NODE  MAX. CHANGE        NODE  MAX. CHANGE        NODE
 ------------------------------------------------------------------------------------------------------------------------------------
  -0.39014    ,        184  0.52603E-05,         35

 Outer-Iteration  Inner-Iteration    Maximum Head Change  Maximum Head Change
     Number           Count               Value              Location
        1                3              -0.38907                   184           GWF-node number
        2                1               0.52219E-05                35           GWF-node number


     2 CALLS TO NUMERICAL SOLUTION  IN TIME STEP   6 STRESS PERIOD   3

 TOTAL OF       2OUTER ITERATIONS
  MAXIMUM CHANGE FOR EACH ITERATION:
   MAX. CHANGE        NODE  MAX. CHANGE        NODE  MAX. CHANGE        NODE  MAX. CHANGE        NODE  MAX. CHANGE        NODE
 ------------------------------------------------------------------------------------------------------------------------------------
  -0.38907    ,        184  0.52219E-05,         35

PICARD ITERATION:      1


 Outer-Iteration  Inner-Iteration    Maximum Head Change  Maximum Head Change
     Number           Count               Value              Location
        1                3              -0.38798                   184           GWF-node number
        2                1               0.51842E-05                35           GWF-node number


     2 CALLS TO NUMERICAL SOLUTION  IN TIME STEP   7 STRESS PERIOD   3

 TOTAL OF       2OUTER ITERATIONS
  MAXIMUM CHANGE FOR EACH ITERATION:
   MAX. CHANGE        NODE  MAX. CHANGE        NODE  MAX. CHANGE        NODE  MAX. CHANGE        NODE  MAX. CHANGE        NODE
 ------------------------------------------------------------------------------------------------------------------------------------
  -0.38798    ,        184  0.51842E-05,         35

 Outer-Iteration  Inner-Iteration    Maximum Head Change  Maximum Head Change
     Number           Count               Value              Location
        1                3              -0.38689                   184           GWF-node number
        2                1               0.51473E-05                35           GWF-node number


     2 CALLS TO NUMERICAL SOLUTION  IN TIME STEP   7 STRESS PERIOD   3

 TOTAL OF       2OUTER ITERATIONS
  MAXIMUM CHANGE FOR EACH ITERATION:
   MAX. CHANGE        NODE  MAX. CHANGE        NODE  MAX. CHANGE        NODE  MAX. CHANGE        NODE  MAX. CHANGE        NODE
 ------------------------------------------------------------------------------------------------------------------------------------
  -0.38689    ,        184  0.51473E-05,         35

PICARD ITERATION:      1


 Outer-Iteration  Inner-Iteration    Maximum Head Change  Maximum Head Change
     Number           Count               Value              Location
        1                3              -0.38580                   184           GWF-node number
        2                1               0.51112E-05                35           GWF-node number


     2 CALLS TO NUMERICAL SOLUTION  IN TIME STEP   8 STRESS PERIOD   3

 TOTAL OF       2OUTER ITERATIONS
  MAXIMUM CHANGE FOR EACH ITERATION:
   MAX. CHANGE        NODE  MAX. CHANGE        NODE  MAX. CHANGE        NODE  MAX. CHANGE        NODE  MAX. CHANGE        NODE
 ------------------------------------------------------------------------------------------------------------------------------------
  -0.38580    ,        184  0.51112E-05,         35

 Outer-Iteration  Inner-Iteration    Maximum Head Change  Maximum Head Change
     Number           Count               Value              Location
        1                3              -0.38470                   184           GWF-node number
        2                1               0.50759E-05                35           GWF-node number


     2 CALLS TO NUMERICAL SOLUTION  IN TIME STEP   8 STRESS PERIOD   3

 TOTAL OF       2OUTER ITERATIONS
  MAXIMUM CHANGE FOR EACH ITERATION:
   MAX. CHANGE        NODE  MAX. CHANGE        NODE  MAX. CHANGE        NODE  MAX. CHANGE        NODE  MAX. CHANGE        NODE
 ------------------------------------------------------------------------------------------------------------------------------------
  -0.38470    ,        184  0.50759E-05,         35

PICARD ITERATION:      1


 Outer-Iteration  Inner-Iteration    Maximum Head Change  Maximum Head Change
     Number           Count               Value              Location
        1                3              -0.38359                   184           GWF-node number
        2                1               0.50412E-05                35           GWF-node number


     2 CALLS TO NUMERICAL SOLUTION  IN TIME STEP   9 STRESS PERIOD   3

 TOTAL OF       2OUTER ITERATIONS
  MAXIMUM CHANGE FOR EACH ITERATION:
   MAX. CHANGE        NODE  MAX. CHANGE        NODE  MAX. CHANGE        NODE  MAX. CHANGE        NODE  MAX. CHANGE        NODE
 ------------------------------------------------------------------------------------------------------------------------------------
  -0.38359    ,        184  0.50412E-05,         35

 Outer-Iteration  Inner-Iteration    Maximum Head Change  Maximum Head Change
     Number           Count               Value              Location
        1                3              -0.38249                   184           GWF-node number
        2                1               0.50073E-05                35           GWF-node number


     2 CALLS TO NUMERICAL SOLUTION  IN TIME STEP   9 STRESS PERIOD   3

 TOTAL OF       2OUTER ITERATIONS
  MAXIMUM CHANGE FOR EACH ITERATION:
   MAX. CHANGE        NODE  MAX. CHANGE        NODE  MAX. CHANGE        NODE  MAX. CHANGE        NODE  MAX. CHANGE        NODE
 ------------------------------------------------------------------------------------------------------------------------------------
  -0.38249    ,        184  0.50073E-05,         35

PICARD ITERATION:      1


 Outer-Iteration  Inner-Iteration    Maximum Head Change  Maximum Head Change
     Number           Count               Value              Location
        1                3              -0.38138                   184           GWF-node number
        2                1               0.49740E-05                35           GWF-node number


     2 CALLS TO NUMERICAL SOLUTION  IN TIME STEP  10 STRESS PERIOD   3

 TOTAL OF       2OUTER ITERATIONS
  MAXIMUM CHANGE FOR EACH ITERATION:
   MAX. CHANGE        NODE  MAX. CHANGE        NODE  MAX. CHANGE        NODE  MAX. CHANGE        NODE  MAX. CHANGE        NODE
 ------------------------------------------------------------------------------------------------------------------------------------
  -0.38138    ,        184  0.49740E-05,         35

 Outer-Iteration  Inner-Iteration    Maximum Head Change  Maximum Head Change
     Number           Count               Value              Location
        1                3              -0.38028                   184           GWF-node number
        2                1               0.49413E-05                35           GWF-node number


     2 CALLS TO NUMERICAL SOLUTION  IN TIME STEP  10 STRESS PERIOD   3

 TOTAL OF       2OUTER ITERATIONS
  MAXIMUM CHANGE FOR EACH ITERATION:
   MAX. CHANGE        NODE  MAX. CHANGE        NODE  MAX. CHANGE        NODE  MAX. CHANGE        NODE  MAX. CHANGE        NODE
 ------------------------------------------------------------------------------------------------------------------------------------
  -0.38028    ,        184  0.49413E-05,         35

 Run end date and time (yyyy/mm/dd hh:mm:ss): 2015/01/29 10:29:45
 Elapsed run time:  0.243 Seconds

 Normal termination of simulation.
