                                  MODFLOW-2015     
      U.S. GEOLOGICAL SURVEY MODULAR FINITE-DIFFERENCE GROUND-WATER FLOW MODEL
                            VERSION GWF 3 11/10/2014

 LIST FILE: test4tas.lst
                         UNIT 1004

 OPENING test4tas.ic
 FILE TYPE:IC8   UNIT 1005   STATUS:OLD    
 FORMAT:FORMATTED              ACCESS:SEQUENTIAL          

 OPENING test4tas.npf
 FILE TYPE:NPF8   UNIT 1006   STATUS:OLD    
 FORMAT:FORMATTED              ACCESS:SEQUENTIAL          
#CHD8  test4tas.chd     OLD                                                                                                                                                                                                                                                                                 

 OPENING test4tas.wel
 FILE TYPE:WEL8   UNIT 1007   STATUS:OLD    
 FORMAT:FORMATTED              ACCESS:SEQUENTIAL          

 OPENING test4tas-example.riv
 FILE TYPE:RIV8   UNIT 1008   STATUS:OLD    
 FORMAT:FORMATTED              ACCESS:SEQUENTIAL          

 OPENING test4tas.rch
 FILE TYPE:RCH8   UNIT 1009   STATUS:OLD    
 FORMAT:FORMATTED              ACCESS:SEQUENTIAL          

 OPENING test4tas.oc
 FILE TYPE:OC8   UNIT 1010   STATUS:OLD    
 FORMAT:FORMATTED              ACCESS:SEQUENTIAL          
#OC8   test4tas-brief.oc      OLD                                                                                                                                                                                                                                                                           

 OPENING test4tas.dis
 FILE TYPE:DIS8   UNIT 1011   STATUS:OLD    
 FORMAT:FORMATTED              ACCESS:SEQUENTIAL          

 OPENING test4tas.ghb
 FILE TYPE:GHB8   UNIT 1012   STATUS:OLD    
 FORMAT:FORMATTED              ACCESS:SEQUENTIAL          

 OPENING test4tas.sto
 FILE TYPE:STO8   UNIT 1013   STATUS:OLD    
 FORMAT:FORMATTED              ACCESS:SEQUENTIAL          

 OPENING test4tas.evt
 FILE TYPE:EVT8   UNIT 1014   STATUS:OLD    
 FORMAT:FORMATTED              ACCESS:SEQUENTIAL          

 OPENING test4tas.obs
 FILE TYPE:OBS8   UNIT 1015   STATUS:OLD    
 FORMAT:FORMATTED              ACCESS:SEQUENTIAL          
#                                                                                                                                                                                                                                                                                                           
# Output DATA and DATA(BINARY) files                                                                                                                                                                                                                                                                        
#                                                                                                                                                                                                                                                                                                           

 OPENING test4tas.cbc
 FILE TYPE:DATA(BINARY)   UNIT 1016   STATUS:REPLACE
 FORMAT:UNFORMATTED            ACCESS:STREAM              
#DATA(BINARY) test4tas.hds    REPLACE                                                                                                                                                                                                                                                                       

 OPENING test4tas.hds
 FILE TYPE:DATA   UNIT 1017   STATUS:REPLACE
 FORMAT:FORMATTED              ACCESS:SEQUENTIAL          

 OPENING ibound.out
 FILE TYPE:DATA   UNIT 1018   STATUS:REPLACE
 FORMAT:FORMATTED              ACCESS:SEQUENTIAL          
#                                                                                                                                                                                                                                                                                                           
# Output: single observations                                                                                                                                                                                                                                                                               

 OPENING head_obs.csv
 FILE TYPE:DATA   UNIT 1019   STATUS:REPLACE
 FORMAT:FORMATTED              ACCESS:SEQUENTIAL          

 OPENING riv_obs.csv
 FILE TYPE:DATA   UNIT 1020   STATUS:REPLACE
 FORMAT:FORMATTED              ACCESS:SEQUENTIAL          

 OPENING ghb_obs.csv
 FILE TYPE:DATA   UNIT 1021   STATUS:REPLACE
 FORMAT:FORMATTED              ACCESS:SEQUENTIAL          
#DATA(BINARY) head_obs.bsv  REPLACE                                                                                                                                                                                                                                                                         
#DATA(BINARY) riv_obs.bsv   REPLACE                                                                                                                                                                                                                                                                         
#                                                                                                                                                                                                                                                                                                           
# Output: continuous observations                                                                                                                                                                                                                                                                           

 OPENING ghb_flows.csv
 FILE TYPE:DATA   UNIT 1022   STATUS:REPLACE
 FORMAT:FORMATTED              ACCESS:SEQUENTIAL          

 OPENING head_hydrographs.csv
 FILE TYPE:DATA   UNIT 1023   STATUS:REPLACE
 FORMAT:FORMATTED              ACCESS:SEQUENTIAL          

 OPENING riv_flows.csv
 FILE TYPE:DATA   UNIT 1024   STATUS:REPLACE
 FORMAT:FORMATTED              ACCESS:SEQUENTIAL          

 OPENING intercell_flow_obs1.csv
 FILE TYPE:DATA   UNIT 1025   STATUS:REPLACE
 FORMAT:FORMATTED              ACCESS:SEQUENTIAL          

 OPENING intercell_flow_obs2.csv
 FILE TYPE:DATA   UNIT 1026   STATUS:REPLACE
 FORMAT:FORMATTED              ACCESS:SEQUENTIAL          

 OPENING intercell_flows.csv
 FILE TYPE:DATA   UNIT 1027   STATUS:REPLACE
 FORMAT:FORMATTED              ACCESS:SEQUENTIAL          

 OPENING chd_flows.csv
 FILE TYPE:DATA   UNIT 1028   STATUS:REPLACE
 FORMAT:FORMATTED              ACCESS:SEQUENTIAL          

 OPENING chd_obs.csv
 FILE TYPE:DATA   UNIT 1029   STATUS:REPLACE
 FORMAT:FORMATTED              ACCESS:SEQUENTIAL          
#DATA(BINARY) ghb_flows.bsv            REPLACE                                                                                                                                                                                                                                                              
#DATA(BINARY) head_hydrographs.bsv     REPLACE                                                                                                                                                                                                                                                              
#DATA(BINARY) riv_flows.bsv            REPLACE                                                                                                                                                                                                                                                              
#DATA(BINARY) intercell_flow_obs1.bsv  REPLACE                                                                                                                                                                                                                                                              
#DATA(BINARY) intercell_flow_obs2.bsv  REPLACE                                                                                                                                                                                                                                                              
#DATA(BINARY) intercell_flows.bsv      REPLACE                                                                                                                                                                                                                                                              

 DIS -- STRUCTURED GRID DISCRETIZATION PACKAGE, VERSION 2 : 3/27/2014 - INPUT READ FROM UNIT 1011


 PROCESSING DISCRETIZATION OPTIONS
 END OF DISCRETIZATION OPTIONS
 MODEL LENGTH UNIT IS UNDEFINED
 PROCESSING DISCRETIZATION DIMENSIONS
    NLAY =       2
    NROW =      10
    NCOL =      15
 END OF DISCRETIZATION DIMENSIONS
 PROCESSING DISDATA

                     DELR =   500.000    

                     DELC =   500.000    

 TOP ELEVATION OF LAYER 1 =   150.000    

   MODEL LAYER BOTTOM EL. =   50.0000     FOR LAYER   1

   MODEL LAYER BOTTOM EL. =  -50.0000     FOR LAYER   2
 END PROCESSING DISDATA

 IC -- INITIAL CONDITIONS PACKAGE, VERSION 8, 3/28/2015 INPUT READ FROM UNIT 1005
 #Valley aquifer with 2 sand layers separated by silt.  Stress period 1 is natur
 # conditions.  Stress period 2 adds wells.
 PROCESSING IC OPTIONS
 END OF IC OPTIONS
 PROCESSING ICDATA

             INITIAL HEAD =  100.0000     FOR LAYER   1

             INITIAL HEAD =  100.0000     FOR LAYER   2
 END PROCESSING ICDATA

 NPF -- NODE PROPERTY FLOW PACKAGE, VERSION 1, 3/30/2015 INPUT READ FROM UNIT 1006


 PROCESSING NPF OPTIONS
    CELL-BY-CELL FLOW INFORMATION WILL BE SAVED TO BINARY FILE WHENEVER ICBCFL IS NOT ZERO.
 #  VFC  (turn on vertical flow correction).  Default is off?
    VERTICAL CONDUCTANCE IS CONSTANT.
 #  CVCORRECTION (default is off)
    REWETTING IS ACTIVE.
    IWETIT HAS BEEN SET TO:     1
    WETTING FACTOR HAS BEEN SET TO:    1.000000    
    IHDWET HAS BEEN SET TO:     0
    THE VALUE FOR HDRY HAS BEEN SET TO:     777.770    
 END OF NPF OPTIONS
 #
 PROCESSING NPFDATA

                ICELLTYPE =              1 FOR LAYER   1

                ICELLTYPE =              0 FOR LAYER   2

                 ICELLAVG =         0



                             WETDRY FOR LAYER   1
 READING ON UNIT 1006 WITH FORMAT: (FREE)              

           1          2          3          4          5          6          7          8          9         10         11
          12         13         14         15
 .........................................................................................................................
   1    2.00       2.00       2.00       2.00       2.00       2.00       2.00       2.00      -2.00      -2.00      -2.00    
       -2.00      -2.00      -2.00      -2.00    
   2    2.00       2.00       2.00       2.00       2.00       2.00       2.00       2.00      -2.00      -2.00      -2.00    
       -2.00      -2.00      -2.00      -2.00    
   3    2.00       2.00       2.00      -2.00       2.00       2.00       2.00       2.00      -2.00      -2.00      -2.00    
       -2.00      -2.00      -2.00      -2.00    
   4    2.00       2.00       2.00       2.00       2.00       2.00       2.00       2.00      -2.00      -2.00      -2.00    
       -2.00      -2.00      -2.00      -2.00    
   5    2.00       2.00       2.00       2.00       2.00       2.00       2.00       2.00      -2.00      -2.00      -2.00    
       -2.00      -2.00      -2.00      -2.00    
   6    2.00       2.00       2.00       2.00       2.00       2.00       2.00       2.00      -2.00      -2.00      -2.00    
       -2.00      -2.00      -2.00      -2.00    
   7    2.00       2.00       2.00       2.00       2.00       2.00       2.00       2.00      -2.00      -2.00      -2.00    
       -2.00      -2.00      -2.00      -2.00    
   8    2.00       2.00       2.00      -2.00       2.00       2.00       2.00       2.00      -2.00      -2.00      -2.00    
       -2.00      -2.00      -2.00      -2.00    
   9    2.00       2.00       2.00       2.00       2.00       2.00       2.00       2.00      -2.00      -2.00      -2.00    
       -2.00      -2.00      -2.00      -2.00    
  10    2.00       2.00       2.00       2.00       2.00       2.00       2.00       2.00      -2.00      -2.00      -2.00    
       -2.00      -2.00      -2.00      -2.00    

                   WETDRY =   0.00000     FOR LAYER   2

                       HK =   4.00000     FOR LAYER   1

                       HK =  0.500000     FOR LAYER   2

                       VK =  1.000000E-02
 END PROCESSING NPFDATA

 STO -- STORAGE PACKAGE, VERSION 1, 5/19/2014 INPUT READ FROM UNIT 1013


 PROCESSING STORAGE OPTIONS
    CELL-BY-CELL FLOW INFORMATION WILL BE SAVED TO BINARY FILE WHENEVER ICBCFL IS NOT ZERO.
 #STORAGECOEFFICIENT uncomment if SS is entered as storage coefficient
 END OF STORAGE OPTIONS

 OUTPUT CONTROL IS SPECIFIED ONLY AT TIME STEPS FOR WHICH OUTPUT IS DESIRED
 BINARY CELL-BY-CELL BUDGET INFORMATION WILL BE WRITTEN TO FILE:
 test4tas.cbc
 OPENED ON UNIT NUMBER:   1016
 HEAD             WILL BE SAVED WITH FORMAT: (15(1x,ES10.4))                                             
 IBOUND           WILL BE SAVED WITH FORMAT: (15(1x,i3))                                                 
 HEAD PRINT FORMAT CODE IS -99
 DRAWDOWN PRINT FORMAT CODE IS  99
 IBOUND PRINT FORMAT CODE IS   0
 HEAD WILL BE SAVED ON UNIT 1017
 IBOUND WILL BE SAVED ON UNIT 1018

The Observation Process is active

Processing observation options:

Binary output precision set to: SINGLE
Text output number of digits of precision set to: 10
"Structured" option found. Cell locations for observations will be
read as: Layer Row Column.


 WEL   -- WELLS PACKAGE, VERSION 8, 2/22/2014 INPUT READ FROM UNIT 1007
 #option block.  Note -- no comments allowed on aux line

 PROCESSING WELLS OPTIONS
    AUXILIARY WELLS VARIABLE: VAR1            
    AUXILIARY WELLS VARIABLE: VAR2            
    AUXILIARY WELLS VARIABLE: VAR3            
    WELLS NEAR RIVER PACKAGE NAME: WELLS NEAR RIVER
    LISTS OF WELLS NEAR RIVER CELLS WILL BE PRINTED.
    WELLS NEAR RIVER FLOWS WILL BE PRINTED TO LISTING FILE.
    FLOWS WILL BE SAVED TO BUDGET FILE SPECIFIED IN OUTPUT CONTROL
    WELLS NEAR RIVER BOUNDARIES HAVE NAMES IN LAST COLUMN.
    TIME-SERIES DATA WILL BE READ FROM FILE: well-1_rate.ts
    TIME-SERIES DATA WILL BE READ FROM FILE: well-2_rate.ts
 END OF WELLS NEAR RIVER OPTIONS

 PROCESSING WELLS NEAR RIVER DIMENSIONS
    MAXBOUND =       5
 END OF WELLS NEAR RIVER DIMENSIONS

 RIV   -- RIVER LEAKAGE PACKAGE, VERSION 8, 2/22/2014 INPUT READ FROM UNIT 1008
 #option block.  Note -- no comments allowed on aux line

 PROCESSING RIVER LEAKAGE OPTIONS
    RIVER PACKAGE NAME: RIVER           
    LISTS OF RIVER CELLS WILL BE PRINTED.
    RIVER FLOWS WILL BE PRINTED TO LISTING FILE.
    FLOWS WILL BE SAVED TO BUDGET FILE SPECIFIED IN OUTPUT CONTROL
    RIVER BOUNDARIES HAVE NAMES IN LAST COLUMN.
    TIME-SERIES DATA WILL BE READ FROM FILE: time_series_file_1.ts
    TIME-SERIES DATA WILL BE READ FROM FILE: time_series_file_2.ts
 #Other packages may specify the same TIMESERIESFILE and reuse the same time series.
 #To specify multiple time-series files, enter a TIMESERIESFILE line for each file.
 END OF RIVER OPTIONS

 PROCESSING RIVER DIMENSIONS
    MAXBOUND =      10
 END OF RIVER DIMENSIONS

 GHB   -- HEAD DEP BOUNDS PACKAGE, VERSION 8, 2/22/2014 INPUT READ FROM UNIT 1012
 # Options block

 PROCESSING HEAD DEP BOUNDS OPTIONS
    GHB LAKES PACKAGE NAME: GHB LAKES       
    LISTS OF GHB LAKES CELLS WILL BE PRINTED.
    GHB LAKES FLOWS WILL BE PRINTED TO LISTING FILE.
    GHB LAKES BOUNDARIES HAVE NAMES IN LAST COLUMN.
 END OF GHB LAKES OPTIONS
 # Dimensions block

 PROCESSING GHB LAKES DIMENSIONS
    MAXBOUND =       3
 END OF GHB LAKES DIMENSIONS

 RCH   -- RECHARGE PACKAGE, VERSION 8, 2/22/2014 INPUT READ FROM UNIT 1009

 PROCESSING RECHARGE OPTIONS
    RECHARGE WILL BE APPLIED TO HIGHEST ACTIVE CELL.
    LISTS OF RECHARGE CELLS WILL BE PRINTED.
    RECHARGE FLOWS WILL BE PRINTED TO LISTING FILE.
    FLOWS WILL BE SAVED TO BUDGET FILE SPECIFIED IN OUTPUT CONTROL
    RECHARGE PACKAGE NAME: RECHARGE        
    TIME-ARRAY SERIES DATA WILL BE READ FROM FILE: RchArraySeries.tas

 RchArraySeries           =  2.000000E-03 FOR LAYER   1
    AUXILIARY RECHARGE VARIABLE: VAR1            
 END OF RECHARGE OPTIONS
 # Dimension block is required

 PROCESSING RECHARGE DIMENSIONS
    MAXBOUND =     150
 END OF RECHARGE DIMENSIONS

 EVT   -- EVT PACKAGE, VERSION 8, 2/22/2014 INPUT READ FROM UNIT 1014
 # EVT input file

 PROCESSING EVT OPTIONS
    EVAPOTRANSPIRATION WILL BE APPLIED TO HIGHEST ACTIVE CELL.
    LISTS OF EVT CELLS WILL BE PRINTED.
    EVT FLOWS WILL BE PRINTED TO LISTING FILE.
    FLOWS WILL BE SAVED TO BUDGET FILE SPECIFIED IN OUTPUT CONTROL
    ET SEGS PACKAGE NAME: ET SEGS         
    TIME-ARRAY SERIES DATA WILL BE READ FROM FILE: EtsArraySeries.tas

 EtsArraySeries           =  3.000000E-04 FOR LAYER   1
 END OF ET SEGS OPTIONS

 PROCESSING ET SEGS DIMENSIONS
    MAXBOUND =     150
 END OF ET SEGS DIMENSIONS
 #

 REUSING STORAGE VALUES FROM LAST STRESS PERIOD

 REUSING WELS FROM LAST STRESS PERIOD
 #    layer       row       col    stage           cond       rbot  BoundName

 RIV NO.  LAYER   ROW    COL       STAGE         CONDUCTANCE  BOTTOM EL.      BOUNDARY NAME         
 ---------------------------------------------------------------------------------------------------
      1      1      1     15       101.0           1001.           101.0                      
      2      1      2     15       101.0           1002.           102.0      RIV2            
      3      1      3     15       111.2           1003.           103.0      RIV3            
      4      1      4     15       111.2           1004.           104.0                      
      5      1      5     15       115.3           1005.           105.0                      
      6      1      6     15       115.3           1006.           106.0                      
      7      1      7     15       104.0           1007.           107.0      RIVX            
      8      1      8     15       104.0           1008.           108.0      RIVX            
      9      1      9     15       113.0           1009.           109.0      RIVX            
     10      1     10     15       113.0           1010.           110.0                      
 # Stress-period block(s)

 GHB NO.  LAYER   ROW    COL       STAGE         CONDUCTANCE  BOUNDARY NAME         
 -----------------------------------------------------------------------------------
      1      1      3      1      100.00           1500.                      
      2      1      7      1       110.0           1400.      GHB2_UPPER      
      3      1      7      1       85.00           500.0      GHB2_LOWER      
 # Time-array series applies stress periods 1-7

      LAYER OR NODE INDEX =              1

 VAR1                     =  100.0000    

      LAYER OR NODE INDEX =              1

               ET SURFACE =   140.000    

  EVAPOTRANSPIRATION RATE =  4.000000E-04

         EXTINCTION DEPTH =  10.00000    

 EXTINCT. DEP. PROPORTION =  0.200000    

       ET RATE PROPORTION =  0.300000    

 EXTINCT. DEP. PROPORTION =  0.500000    

       ET RATE PROPORTION =  1.000000E-01
RIV   no.    1 value from time series:   101.00     for time:  0.000     to 1.0000    
RIV   no.    2 value from time series:   101.00     for time:  0.000     to 1.0000    
RIV   no.    3 value from time series:   111.25     for time:  0.000     to 1.0000    
RIV   no.    4 value from time series:   111.25     for time:  0.000     to 1.0000    
RIV   no.    5 value from time series:   115.35     for time:  0.000     to 1.0000    
RIV   no.    6 value from time series:   115.35     for time:  0.000     to 1.0000    
RIV   no.    7 value from time series:   104.05     for time:  0.000     to 1.0000    
RIV   no.    8 value from time series:   104.05     for time:  0.000     to 1.0000    
RIV   no.    9 value from time series:   113.00     for time:  0.000     to 1.0000    
RIV   no.   10 value from time series:   113.00     for time:  0.000     to 1.0000    

 RchArraySeries           =  2.500000E-03 FOR LAYER   1
RIV   no.    1 value from time series:   101.00     for time:  0.000     to 1.0000    
RIV   no.    2 value from time series:   101.00     for time:  0.000     to 1.0000    
RIV   no.    3 value from time series:   111.25     for time:  0.000     to 1.0000    
RIV   no.    4 value from time series:   111.25     for time:  0.000     to 1.0000    
RIV   no.    5 value from time series:   115.35     for time:  0.000     to 1.0000    
RIV   no.    6 value from time series:   115.35     for time:  0.000     to 1.0000    
RIV   no.    7 value from time series:   104.05     for time:  0.000     to 1.0000    
RIV   no.    8 value from time series:   104.05     for time:  0.000     to 1.0000    
RIV   no.    9 value from time series:   113.00     for time:  0.000     to 1.0000    
RIV   no.   10 value from time series:   113.00     for time:  0.000     to 1.0000    

 OUTPUT CONTROL FOR STRESS PERIOD    1   TIME STEP    1
    PRINT BUDGET
    PRINT HEAD
    PRINT HEAD FOR ALL LAYERS
    SAVE BUDGET
    SAVE HEAD
    SAVE HEAD FOR ALL LAYERS
    SAVE IBOUND
    SAVE IBOUND FOR ALL LAYERS
 UBDSV1 SAVING          STORAGE ON UNIT   1016 AT TIME STEP      1, STRESS PERIOD      1
 UBDSV1 SAVING FLOW RIGHT FACE  ON UNIT   1016 AT TIME STEP      1, STRESS PERIOD      1
 UBDSV1 SAVING FLOW FRONT FACE  ON UNIT   1016 AT TIME STEP      1, STRESS PERIOD      1
 UBDSV1 SAVING FLOW LOWER FACE  ON UNIT   1016 AT TIME STEP      1, STRESS PERIOD      1
 UBDSV4 SAVING WELLS NEAR RIVER ON UNIT   1016 AT TIME STEP      1, STRESS PERIOD      1
 UBDSV4 SAVING RIVER            ON UNIT   1016 AT TIME STEP      1, STRESS PERIOD      1

 RIVER              PERIOD  1   STEP  1
 BOUNDARY      1   LAYER   1   ROW     1   COL    15   RATE    -4657.61    
 BOUNDARY      2   LAYER   1   ROW     2   COL    15   RATE    -5758.62      RIV2
 BOUNDARY      3   LAYER   1   ROW     3   COL    15   RATE    -2138.98      RIV3
 BOUNDARY      4   LAYER   1   ROW     4   COL    15   RATE    -3629.01    
 BOUNDARY      5   LAYER   1   ROW     5   COL    15   RATE    -2063.27    
 BOUNDARY      6   LAYER   1   ROW     6   COL    15   RATE    -1438.81    
 BOUNDARY      7   LAYER   1   ROW     7   COL    15   RATE    -5994.58      RIVX
 BOUNDARY      8   LAYER   1   ROW     8   COL    15   RATE    -5765.43      RIVX
 BOUNDARY      9   LAYER   1   ROW     9   COL    15   RATE    -2194.36      RIVX
 BOUNDARY     10   LAYER   1   ROW    10   COL    15   RATE    -3046.62    

 GHB LAKES          PERIOD  1   STEP  1
 BOUNDARY      1   LAYER   1   ROW     3   COL     1   RATE    -14402.9    
 BOUNDARY      2   LAYER   1   ROW     7   COL     1   RATE    -1829.65      GHB2_UPPER
 BOUNDARY      3   LAYER   1   ROW     7   COL     1   RATE    -13153.4      GHB2_LOWER
 UBDSV4 SAVING RECHARGE         ON UNIT   1016 AT TIME STEP      1, STRESS PERIOD      1

 RECHARGE           PERIOD  1   STEP  1
 BOUNDARY      1   LAYER   1   ROW     1   COL     1   RATE     501.042    
 BOUNDARY      2   LAYER   1   ROW     1   COL     2   RATE     501.042    
 BOUNDARY      3   LAYER   1   ROW     1   COL     3   RATE     501.042    
 BOUNDARY      4   LAYER   1   ROW     1   COL     4   RATE     501.042    
 BOUNDARY      5   LAYER   1   ROW     1   COL     5   RATE     501.042    
 BOUNDARY      6   LAYER   1   ROW     1   COL     6   RATE     501.042    
 BOUNDARY      7   LAYER   1   ROW     1   COL     7   RATE     501.042    
 BOUNDARY      8   LAYER   1   ROW     1   COL     8   RATE     501.042    
 BOUNDARY      9   LAYER   1   ROW     1   COL     9   RATE     501.042    
 BOUNDARY     10   LAYER   1   ROW     1   COL    10   RATE     501.042    
 BOUNDARY     11   LAYER   1   ROW     1   COL    11   RATE     501.042    
 BOUNDARY     12   LAYER   1   ROW     1   COL    12   RATE     501.042    
 BOUNDARY     13   LAYER   1   ROW     1   COL    13   RATE     501.042    
 BOUNDARY     14   LAYER   1   ROW     1   COL    14   RATE     501.042    
 BOUNDARY     15   LAYER   1   ROW     1   COL    15   RATE     501.042    
 BOUNDARY     16   LAYER   1   ROW     2   COL     1   RATE     501.042    
 BOUNDARY     17   LAYER   1   ROW     2   COL     2   RATE     501.042    
 BOUNDARY     18   LAYER   1   ROW     2   COL     3   RATE     501.042    
 BOUNDARY     19   LAYER   1   ROW     2   COL     4   RATE     501.042    
 BOUNDARY     20   LAYER   1   ROW     2   COL     5   RATE     501.042    
 BOUNDARY     21   LAYER   1   ROW     2   COL     6   RATE     501.042    
 BOUNDARY     22   LAYER   1   ROW     2   COL     7   RATE     501.042    
 BOUNDARY     23   LAYER   1   ROW     2   COL     8   RATE     501.042    
 BOUNDARY     24   LAYER   1   ROW     2   COL     9   RATE     501.042    
 BOUNDARY     25   LAYER   1   ROW     2   COL    10   RATE     501.042    
 BOUNDARY     26   LAYER   1   ROW     2   COL    11   RATE     501.042    
 BOUNDARY     27   LAYER   1   ROW     2   COL    12   RATE     501.042    
 BOUNDARY     28   LAYER   1   ROW     2   COL    13   RATE     501.042    
 BOUNDARY     29   LAYER   1   ROW     2   COL    14   RATE     501.042    
 BOUNDARY     30   LAYER   1   ROW     2   COL    15   RATE     501.042    
 BOUNDARY     31   LAYER   1   ROW     3   COL     1   RATE     501.042    
 BOUNDARY     32   LAYER   1   ROW     3   COL     2   RATE     501.042    
 BOUNDARY     33   LAYER   1   ROW     3   COL     3   RATE     501.042    
 BOUNDARY     34   LAYER   1   ROW     3   COL     4   RATE     501.042    
 BOUNDARY     35   LAYER   1   ROW     3   COL     5   RATE     501.042    
 BOUNDARY     36   LAYER   1   ROW     3   COL     6   RATE     501.042    
 BOUNDARY     37   LAYER   1   ROW     3   COL     7   RATE     501.042    
 BOUNDARY     38   LAYER   1   ROW     3   COL     8   RATE     501.042    
 BOUNDARY     39   LAYER   1   ROW     3   COL     9   RATE     501.042    
 BOUNDARY     40   LAYER   1   ROW     3   COL    10   RATE     501.042    
 BOUNDARY     41   LAYER   1   ROW     3   COL    11   RATE     501.042    
 BOUNDARY     42   LAYER   1   ROW     3   COL    12   RATE     501.042    
 BOUNDARY     43   LAYER   1   ROW     3   COL    13   RATE     501.042    
 BOUNDARY     44   LAYER   1   ROW     3   COL    14   RATE     501.042    
 BOUNDARY     45   LAYER   1   ROW     3   COL    15   RATE     501.042    
 BOUNDARY     46   LAYER   1   ROW     4   COL     1   RATE     501.042    
 BOUNDARY     47   LAYER   1   ROW     4   COL     2   RATE     501.042    
 BOUNDARY     48   LAYER   1   ROW     4   COL     3   RATE     501.042    
 BOUNDARY     49   LAYER   1   ROW     4   COL     4   RATE     501.042    
 BOUNDARY     50   LAYER   1   ROW     4   COL     5   RATE     501.042    
 BOUNDARY     51   LAYER   1   ROW     4   COL     6   RATE     501.042    
 BOUNDARY     52   LAYER   1   ROW     4   COL     7   RATE     501.042    
 BOUNDARY     53   LAYER   1   ROW     4   COL     8   RATE     501.042    
 BOUNDARY     54   LAYER   1   ROW     4   COL     9   RATE     501.042    
 BOUNDARY     55   LAYER   1   ROW     4   COL    10   RATE     501.042    
 BOUNDARY     56   LAYER   1   ROW     4   COL    11   RATE     501.042    
 BOUNDARY     57   LAYER   1   ROW     4   COL    12   RATE     501.042    
 BOUNDARY     58   LAYER   1   ROW     4   COL    13   RATE     501.042    
 BOUNDARY     59   LAYER   1   ROW     4   COL    14   RATE     501.042    
 BOUNDARY     60   LAYER   1   ROW     4   COL    15   RATE     501.042    
 BOUNDARY     61   LAYER   1   ROW     5   COL     1   RATE     501.042    
 BOUNDARY     62   LAYER   1   ROW     5   COL     2   RATE     501.042    
 BOUNDARY     63   LAYER   1   ROW     5   COL     3   RATE     501.042    
 BOUNDARY     64   LAYER   1   ROW     5   COL     4   RATE     501.042    
 BOUNDARY     65   LAYER   1   ROW     5   COL     5   RATE     501.042    
 BOUNDARY     66   LAYER   1   ROW     5   COL     6   RATE     501.042    
 BOUNDARY     67   LAYER   1   ROW     5   COL     7   RATE     501.042    
 BOUNDARY     68   LAYER   1   ROW     5   COL     8   RATE     501.042    
 BOUNDARY     69   LAYER   1   ROW     5   COL     9   RATE     501.042    
 BOUNDARY     70   LAYER   1   ROW     5   COL    10   RATE     501.042    
 BOUNDARY     71   LAYER   1   ROW     5   COL    11   RATE     501.042    
 BOUNDARY     72   LAYER   1   ROW     5   COL    12   RATE     501.042    
 BOUNDARY     73   LAYER   1   ROW     5   COL    13   RATE     501.042    
 BOUNDARY     74   LAYER   1   ROW     5   COL    14   RATE     501.042    
 BOUNDARY     75   LAYER   1   ROW     5   COL    15   RATE     501.042    
 BOUNDARY     76   LAYER   1   ROW     6   COL     1   RATE     501.042    
 BOUNDARY     77   LAYER   1   ROW     6   COL     2   RATE     501.042    
 BOUNDARY     78   LAYER   1   ROW     6   COL     3   RATE     501.042    
 BOUNDARY     79   LAYER   1   ROW     6   COL     4   RATE     501.042    
 BOUNDARY     80   LAYER   1   ROW     6   COL     5   RATE     501.042    
 BOUNDARY     81   LAYER   1   ROW     6   COL     6   RATE     501.042    
 BOUNDARY     82   LAYER   1   ROW     6   COL     7   RATE     501.042    
 BOUNDARY     83   LAYER   1   ROW     6   COL     8   RATE     501.042    
 BOUNDARY     84   LAYER   1   ROW     6   COL     9   RATE     501.042    
 BOUNDARY     85   LAYER   1   ROW     6   COL    10   RATE     501.042    
 BOUNDARY     86   LAYER   1   ROW     6   COL    11   RATE     501.042    
 BOUNDARY     87   LAYER   1   ROW     6   COL    12   RATE     501.042    
 BOUNDARY     88   LAYER   1   ROW     6   COL    13   RATE     501.042    
 BOUNDARY     89   LAYER   1   ROW     6   COL    14   RATE     501.042    
 BOUNDARY     90   LAYER   1   ROW     6   COL    15   RATE     501.042    
 BOUNDARY     91   LAYER   1   ROW     7   COL     1   RATE     501.042    
 BOUNDARY     92   LAYER   1   ROW     7   COL     2   RATE     501.042    
 BOUNDARY     93   LAYER   1   ROW     7   COL     3   RATE     501.042    
 BOUNDARY     94   LAYER   1   ROW     7   COL     4   RATE     501.042    
 BOUNDARY     95   LAYER   1   ROW     7   COL     5   RATE     501.042    
 BOUNDARY     96   LAYER   1   ROW     7   COL     6   RATE     501.042    
 BOUNDARY     97   LAYER   1   ROW     7   COL     7   RATE     501.042    
 BOUNDARY     98   LAYER   1   ROW     7   COL     8   RATE     501.042    
 BOUNDARY     99   LAYER   1   ROW     7   COL     9   RATE     501.042    
 BOUNDARY    100   LAYER   1   ROW     7   COL    10   RATE     501.042    
 BOUNDARY    101   LAYER   1   ROW     7   COL    11   RATE     501.042    
 BOUNDARY    102   LAYER   1   ROW     7   COL    12   RATE     501.042    
 BOUNDARY    103   LAYER   1   ROW     7   COL    13   RATE     501.042    
 BOUNDARY    104   LAYER   1   ROW     7   COL    14   RATE     501.042    
 BOUNDARY    105   LAYER   1   ROW     7   COL    15   RATE     501.042    
 BOUNDARY    106   LAYER   1   ROW     8   COL     1   RATE     501.042    
 BOUNDARY    107   LAYER   1   ROW     8   COL     2   RATE     501.042    
 BOUNDARY    108   LAYER   1   ROW     8   COL     3   RATE     501.042    
 BOUNDARY    109   LAYER   1   ROW     8   COL     4   RATE     501.042    
 BOUNDARY    110   LAYER   1   ROW     8   COL     5   RATE     501.042    
 BOUNDARY    111   LAYER   1   ROW     8   COL     6   RATE     501.042    
 BOUNDARY    112   LAYER   1   ROW     8   COL     7   RATE     501.042    
 BOUNDARY    113   LAYER   1   ROW     8   COL     8   RATE     501.042    
 BOUNDARY    114   LAYER   1   ROW     8   COL     9   RATE     501.042    
 BOUNDARY    115   LAYER   1   ROW     8   COL    10   RATE     501.042    
 BOUNDARY    116   LAYER   1   ROW     8   COL    11   RATE     501.042    
 BOUNDARY    117   LAYER   1   ROW     8   COL    12   RATE     501.042    
 BOUNDARY    118   LAYER   1   ROW     8   COL    13   RATE     501.042    
 BOUNDARY    119   LAYER   1   ROW     8   COL    14   RATE     501.042    
 BOUNDARY    120   LAYER   1   ROW     8   COL    15   RATE     501.042    
 BOUNDARY    121   LAYER   1   ROW     9   COL     1   RATE     501.042    
 BOUNDARY    122   LAYER   1   ROW     9   COL     2   RATE     501.042    
 BOUNDARY    123   LAYER   1   ROW     9   COL     3   RATE     501.042    
 BOUNDARY    124   LAYER   1   ROW     9   COL     4   RATE     501.042    
 BOUNDARY    125   LAYER   1   ROW     9   COL     5   RATE     501.042    
 BOUNDARY    126   LAYER   1   ROW     9   COL     6   RATE     501.042    
 BOUNDARY    127   LAYER   1   ROW     9   COL     7   RATE     501.042    
 BOUNDARY    128   LAYER   1   ROW     9   COL     8   RATE     501.042    
 BOUNDARY    129   LAYER   1   ROW     9   COL     9   RATE     501.042    
 BOUNDARY    130   LAYER   1   ROW     9   COL    10   RATE     501.042    
 BOUNDARY    131   LAYER   1   ROW     9   COL    11   RATE     501.042    
 BOUNDARY    132   LAYER   1   ROW     9   COL    12   RATE     501.042    
 BOUNDARY    133   LAYER   1   ROW     9   COL    13   RATE     501.042    
 BOUNDARY    134   LAYER   1   ROW     9   COL    14   RATE     501.042    
 BOUNDARY    135   LAYER   1   ROW     9   COL    15   RATE     501.042    
 BOUNDARY    136   LAYER   1   ROW    10   COL     1   RATE     501.042    
 BOUNDARY    137   LAYER   1   ROW    10   COL     2   RATE     501.042    
 BOUNDARY    138   LAYER   1   ROW    10   COL     3   RATE     501.042    
 BOUNDARY    139   LAYER   1   ROW    10   COL     4   RATE     501.042    
 BOUNDARY    140   LAYER   1   ROW    10   COL     5   RATE     501.042    
 BOUNDARY    141   LAYER   1   ROW    10   COL     6   RATE     501.042    
 BOUNDARY    142   LAYER   1   ROW    10   COL     7   RATE     501.042    
 BOUNDARY    143   LAYER   1   ROW    10   COL     8   RATE     501.042    
 BOUNDARY    144   LAYER   1   ROW    10   COL     9   RATE     501.042    
 BOUNDARY    145   LAYER   1   ROW    10   COL    10   RATE     501.042    
 BOUNDARY    146   LAYER   1   ROW    10   COL    11   RATE     501.042    
 BOUNDARY    147   LAYER   1   ROW    10   COL    12   RATE     501.042    
 BOUNDARY    148   LAYER   1   ROW    10   COL    13   RATE     501.042    
 BOUNDARY    149   LAYER   1   ROW    10   COL    14   RATE     501.042    
 BOUNDARY    150   LAYER   1   ROW    10   COL    15   RATE     501.042    
 UBDSV4 SAVING ET SEGS          ON UNIT   1016 AT TIME STEP      1, STRESS PERIOD      1

 ET SEGS            PERIOD  1   STEP  1
 BOUNDARY      1   LAYER   1   ROW     1   COL     1   RATE    -2.06479    
 BOUNDARY      2   LAYER   1   ROW     1   COL     2   RATE    -8.91741    
 BOUNDARY      3   LAYER   1   ROW     1   COL     3   RATE    -47.6417    
 BOUNDARY      4   LAYER   1   ROW     1   COL     4   RATE   -100.0000    
 BOUNDARY      5   LAYER   1   ROW     1   COL     5   RATE   -100.0000    
 BOUNDARY      6   LAYER   1   ROW     1   COL     6   RATE   -100.0000    
 BOUNDARY      7   LAYER   1   ROW     1   COL     7   RATE   -100.0000    
 BOUNDARY      8   LAYER   1   ROW     1   COL     8   RATE   -100.0000    
 BOUNDARY      9   LAYER   1   ROW     1   COL     9   RATE   -100.0000    
 BOUNDARY     10   LAYER   1   ROW     1   COL    10   RATE   -100.0000    
 BOUNDARY     11   LAYER   1   ROW     1   COL    11   RATE   -100.0000    
 BOUNDARY     12   LAYER   1   ROW     1   COL    12   RATE    -16.4954    
 BOUNDARY     13   LAYER   1   ROW     1   COL    13   RATE     0.00000    
 BOUNDARY     14   LAYER   1   ROW     1   COL    14   RATE     0.00000    
 BOUNDARY     15   LAYER   1   ROW     1   COL    15   RATE     0.00000    
 BOUNDARY     16   LAYER   1   ROW     2   COL     1   RATE     0.00000    
 BOUNDARY     17   LAYER   1   ROW     2   COL     2   RATE    -4.40226    
 BOUNDARY     18   LAYER   1   ROW     2   COL     3   RATE    -27.9891    
 BOUNDARY     19   LAYER   1   ROW     2   COL     4   RATE   -100.0000    
 BOUNDARY     20   LAYER   1   ROW     2   COL     5   RATE   -100.0000    
 BOUNDARY     21   LAYER   1   ROW     2   COL     6   RATE   -100.0000    
 BOUNDARY     22   LAYER   1   ROW     2   COL     7   RATE   -100.0000    
 BOUNDARY     23   LAYER   1   ROW     2   COL     8   RATE   -100.0000    
 BOUNDARY     24   LAYER   1   ROW     2   COL     9   RATE   -100.0000    
 BOUNDARY     25   LAYER   1   ROW     2   COL    10   RATE   -100.0000    
 BOUNDARY     26   LAYER   1   ROW     2   COL    11   RATE   -100.0000    
 BOUNDARY     27   LAYER   1   ROW     2   COL    12   RATE    -18.2351    
 BOUNDARY     28   LAYER   1   ROW     2   COL    13   RATE     0.00000    
 BOUNDARY     29   LAYER   1   ROW     2   COL    14   RATE     0.00000    
 BOUNDARY     30   LAYER   1   ROW     2   COL    15   RATE     0.00000    
 BOUNDARY     31   LAYER   1   ROW     3   COL     1   RATE     0.00000    
 BOUNDARY     32   LAYER   1   ROW     3   COL     2   RATE     0.00000    
 BOUNDARY     33   LAYER   1   ROW     3   COL     3   RATE    -22.0003    
 BOUNDARY     34   LAYER   1   ROW     3   COL     4   RATE   -100.0000    
 BOUNDARY     35   LAYER   1   ROW     3   COL     5   RATE   -100.0000    
 BOUNDARY     36   LAYER   1   ROW     3   COL     6   RATE   -100.0000    
 BOUNDARY     37   LAYER   1   ROW     3   COL     7   RATE   -100.0000    
 BOUNDARY     38   LAYER   1   ROW     3   COL     8   RATE   -100.0000    
 BOUNDARY     39   LAYER   1   ROW     3   COL     9   RATE   -100.0000    
 BOUNDARY     40   LAYER   1   ROW     3   COL    10   RATE   -100.0000    
 BOUNDARY     41   LAYER   1   ROW     3   COL    11   RATE   -100.0000    
 BOUNDARY     42   LAYER   1   ROW     3   COL    12   RATE    -21.1694    
 BOUNDARY     43   LAYER   1   ROW     3   COL    13   RATE    -1.78391    
 BOUNDARY     44   LAYER   1   ROW     3   COL    14   RATE     0.00000    
 BOUNDARY     45   LAYER   1   ROW     3   COL    15   RATE     0.00000    
 BOUNDARY     46   LAYER   1   ROW     4   COL     1   RATE     0.00000    
 BOUNDARY     47   LAYER   1   ROW     4   COL     2   RATE    -2.88834    
 BOUNDARY     48   LAYER   1   ROW     4   COL     3   RATE    -25.8653    
 BOUNDARY     49   LAYER   1   ROW     4   COL     4   RATE   -100.0000    
 BOUNDARY     50   LAYER   1   ROW     4   COL     5   RATE   -100.0000    
 BOUNDARY     51   LAYER   1   ROW     4   COL     6   RATE   -100.0000    
 BOUNDARY     52   LAYER   1   ROW     4   COL     7   RATE   -100.0000    
 BOUNDARY     53   LAYER   1   ROW     4   COL     8   RATE   -100.0000    
 BOUNDARY     54   LAYER   1   ROW     4   COL     9   RATE   -100.0000    
 BOUNDARY     55   LAYER   1   ROW     4   COL    10   RATE   -100.0000    
 BOUNDARY     56   LAYER   1   ROW     4   COL    11   RATE   -100.0000    
 BOUNDARY     57   LAYER   1   ROW     4   COL    12   RATE    -23.9706    
 BOUNDARY     58   LAYER   1   ROW     4   COL    13   RATE    -3.25024    
 BOUNDARY     59   LAYER   1   ROW     4   COL    14   RATE     0.00000    
 BOUNDARY     60   LAYER   1   ROW     4   COL    15   RATE     0.00000    
 BOUNDARY     61   LAYER   1   ROW     5   COL     1   RATE     0.00000    
 BOUNDARY     62   LAYER   1   ROW     5   COL     2   RATE    -5.86160    
 BOUNDARY     63   LAYER   1   ROW     5   COL     3   RATE    -29.8528    
 BOUNDARY     64   LAYER   1   ROW     5   COL     4   RATE   -100.0000    
 BOUNDARY     65   LAYER   1   ROW     5   COL     5   RATE   -100.0000    
 BOUNDARY     66   LAYER   1   ROW     5   COL     6   RATE   -100.0000    
 BOUNDARY     67   LAYER   1   ROW     5   COL     7   RATE   -100.0000    
 BOUNDARY     68   LAYER   1   ROW     5   COL     8   RATE   -100.0000    
 BOUNDARY     69   LAYER   1   ROW     5   COL     9   RATE   -100.0000    
 BOUNDARY     70   LAYER   1   ROW     5   COL    10   RATE   -100.0000    
 BOUNDARY     71   LAYER   1   ROW     5   COL    11   RATE   -100.0000    
 BOUNDARY     72   LAYER   1   ROW     5   COL    12   RATE    -25.9130    
 BOUNDARY     73   LAYER   1   ROW     5   COL    13   RATE    -4.17066    
 BOUNDARY     74   LAYER   1   ROW     5   COL    14   RATE     0.00000    
 BOUNDARY     75   LAYER   1   ROW     5   COL    15   RATE     0.00000    
 BOUNDARY     76   LAYER   1   ROW     6   COL     1   RATE     0.00000    
 BOUNDARY     77   LAYER   1   ROW     6   COL     2   RATE    -4.43364    
 BOUNDARY     78   LAYER   1   ROW     6   COL     3   RATE    -33.0982    
 BOUNDARY     79   LAYER   1   ROW     6   COL     4   RATE   -100.0000    
 BOUNDARY     80   LAYER   1   ROW     6   COL     5   RATE   -100.0000    
 BOUNDARY     81   LAYER   1   ROW     6   COL     6   RATE   -100.0000    
 BOUNDARY     82   LAYER   1   ROW     6   COL     7   RATE   -100.0000    
 BOUNDARY     83   LAYER   1   ROW     6   COL     8   RATE   -100.0000    
 BOUNDARY     84   LAYER   1   ROW     6   COL     9   RATE   -100.0000    
 BOUNDARY     85   LAYER   1   ROW     6   COL    10   RATE   -100.0000    
 BOUNDARY     86   LAYER   1   ROW     6   COL    11   RATE   -100.0000    
 BOUNDARY     87   LAYER   1   ROW     6   COL    12   RATE    -26.5623    
 BOUNDARY     88   LAYER   1   ROW     6   COL    13   RATE    -4.13053    
 BOUNDARY     89   LAYER   1   ROW     6   COL    14   RATE     0.00000    
 BOUNDARY     90   LAYER   1   ROW     6   COL    15   RATE     0.00000    
 BOUNDARY     91   LAYER   1   ROW     7   COL     1   RATE     0.00000    
 BOUNDARY     92   LAYER   1   ROW     7   COL     2   RATE   -0.942161    
 BOUNDARY     93   LAYER   1   ROW     7   COL     3   RATE    -39.9852    
 BOUNDARY     94   LAYER   1   ROW     7   COL     4   RATE   -100.0000    
 BOUNDARY     95   LAYER   1   ROW     7   COL     5   RATE   -100.0000    
 BOUNDARY     96   LAYER   1   ROW     7   COL     6   RATE   -100.0000    
 BOUNDARY     97   LAYER   1   ROW     7   COL     7   RATE   -100.0000    
 BOUNDARY     98   LAYER   1   ROW     7   COL     8   RATE   -100.0000    
 BOUNDARY     99   LAYER   1   ROW     7   COL     9   RATE   -100.0000    
 BOUNDARY    100   LAYER   1   ROW     7   COL    10   RATE   -100.0000    
 BOUNDARY    101   LAYER   1   ROW     7   COL    11   RATE   -100.0000    
 BOUNDARY    102   LAYER   1   ROW     7   COL    12   RATE    -26.3967    
 BOUNDARY    103   LAYER   1   ROW     7   COL    13   RATE    -3.39156    
 BOUNDARY    104   LAYER   1   ROW     7   COL    14   RATE     0.00000    
 BOUNDARY    105   LAYER   1   ROW     7   COL    15   RATE     0.00000    
 BOUNDARY    106   LAYER   1   ROW     8   COL     1   RATE     0.00000    
 BOUNDARY    107   LAYER   1   ROW     8   COL     2   RATE    -10.9914    
 BOUNDARY    108   LAYER   1   ROW     8   COL     3   RATE   -100.0000    
 BOUNDARY    109   LAYER   1   ROW     8   COL     4   RATE   -100.0000    
 BOUNDARY    110   LAYER   1   ROW     8   COL     5   RATE   -100.0000    
 BOUNDARY    111   LAYER   1   ROW     8   COL     6   RATE   -100.0000    
 BOUNDARY    112   LAYER   1   ROW     8   COL     7   RATE   -100.0000    
 BOUNDARY    113   LAYER   1   ROW     8   COL     8   RATE   -100.0000    
 BOUNDARY    114   LAYER   1   ROW     8   COL     9   RATE   -100.0000    
 BOUNDARY    115   LAYER   1   ROW     8   COL    10   RATE   -100.0000    
 BOUNDARY    116   LAYER   1   ROW     8   COL    11   RATE   -100.0000    
 BOUNDARY    117   LAYER   1   ROW     8   COL    12   RATE    -26.7818    
 BOUNDARY    118   LAYER   1   ROW     8   COL    13   RATE    -3.39032    
 BOUNDARY    119   LAYER   1   ROW     8   COL    14   RATE     0.00000    
 BOUNDARY    120   LAYER   1   ROW     8   COL    15   RATE     0.00000    
 BOUNDARY    121   LAYER   1   ROW     9   COL     1   RATE    -18.5696    
 BOUNDARY    122   LAYER   1   ROW     9   COL     2   RATE    -59.0698    
 BOUNDARY    123   LAYER   1   ROW     9   COL     3   RATE   -100.0000    
 BOUNDARY    124   LAYER   1   ROW     9   COL     4   RATE   -100.0000    
 BOUNDARY    125   LAYER   1   ROW     9   COL     5   RATE   -100.0000    
 BOUNDARY    126   LAYER   1   ROW     9   COL     6   RATE   -100.0000    
 BOUNDARY    127   LAYER   1   ROW     9   COL     7   RATE   -100.0000    
 BOUNDARY    128   LAYER   1   ROW     9   COL     8   RATE   -100.0000    
 BOUNDARY    129   LAYER   1   ROW     9   COL     9   RATE   -100.0000    
 BOUNDARY    130   LAYER   1   ROW     9   COL    10   RATE   -100.0000    
 BOUNDARY    131   LAYER   1   ROW     9   COL    11   RATE   -100.0000    
 BOUNDARY    132   LAYER   1   ROW     9   COL    12   RATE    -27.8755    
 BOUNDARY    133   LAYER   1   ROW     9   COL    13   RATE    -4.20119    
 BOUNDARY    134   LAYER   1   ROW     9   COL    14   RATE     0.00000    
 BOUNDARY    135   LAYER   1   ROW     9   COL    15   RATE     0.00000    
 BOUNDARY    136   LAYER   1   ROW    10   COL     1   RATE    -67.2832    
 BOUNDARY    137   LAYER   1   ROW    10   COL     2   RATE   -100.0000    
 BOUNDARY    138   LAYER   1   ROW    10   COL     3   RATE   -100.0000    
 BOUNDARY    139   LAYER   1   ROW    10   COL     4   RATE   -100.0000    
 BOUNDARY    140   LAYER   1   ROW    10   COL     5   RATE   -100.0000    
 BOUNDARY    141   LAYER   1   ROW    10   COL     6   RATE   -100.0000    
 BOUNDARY    142   LAYER   1   ROW    10   COL     7   RATE   -100.0000    
 BOUNDARY    143   LAYER   1   ROW    10   COL     8   RATE   -100.0000    
 BOUNDARY    144   LAYER   1   ROW    10   COL     9   RATE   -100.0000    
 BOUNDARY    145   LAYER   1   ROW    10   COL    10   RATE   -100.0000    
 BOUNDARY    146   LAYER   1   ROW    10   COL    11   RATE   -100.0000    
 BOUNDARY    147   LAYER   1   ROW    10   COL    12   RATE    -28.6692    
 BOUNDARY    148   LAYER   1   ROW    10   COL    13   RATE    -4.72590    
 BOUNDARY    149   LAYER   1   ROW    10   COL    14   RATE     0.00000    
 BOUNDARY    150   LAYER   1   ROW    10   COL    15   RATE     0.00000    
1
  HEAD             IN LAYER   1 AT END OF TIME STEP   1 IN STRESS PERIOD    1
  ---------------------------------------------------------------------------

           1          2          3          4          5          6          7          8
 ........................................................................................
   1   131.03239  134.45870  138.50405  141.98536  144.64460  146.37812  147.16998  147.01622
   2   125.74227  132.20113  137.69836  141.71468  144.56997  146.37624  147.19747  147.06006
   3   109.60193  128.76727  136.80005  141.47323  144.53405  146.41360  147.26527  147.14723
   4   124.48402  131.44417  137.37979  141.66287  144.65856  146.53099  147.38452  147.27340
   5   128.24188  132.93080  137.97792  141.98610  144.88903  146.72033  147.55096  147.42883
   6   125.21856  132.21682  138.08852  142.28253  145.17982  146.96580  147.75410  147.60214
   7   111.30689  130.47108  138.28529  142.73440  145.57306  147.26725  147.98325  147.78213
   8   129.15073  135.14871  140.06427  143.64224  146.10759  147.60976  148.21763  147.95319
   9   136.28544  138.83056  141.87110  144.57316  146.62284  147.91710  148.41530  148.09095
  10   139.06523  140.62571  142.89063  145.12999  146.93308  148.09879  148.52914  148.16857
1
  HEAD             IN LAYER   1 AT END OF TIME STEP   1 IN STRESS PERIOD    1
  ---------------------------------------------------------------------------

           9         10         11         12         13         14         15
 .............................................................................
   1   145.89780  143.76525  140.51951  135.97430  129.50722  120.17736  105.65296
   2   145.95898  143.85572  140.66688  136.23527  129.99801  121.07000  106.74712
   3   146.07074  144.01260  140.91466  136.67541  130.89195  123.19756  113.38258
   4   146.21470  144.19579  141.17754  137.09558  131.62512  124.46450  114.86455
   5   146.37169  144.37015  141.39163  137.38695  132.08533  125.37391  117.40300
   6   146.52754  144.51667  141.52680  137.48434  132.06527  125.06460  116.78023
   7   146.67503  144.63797  141.60829  137.45951  131.69578  123.45462  110.00290
   8   146.80817  144.74669  141.69610  137.51727  131.69516  123.33862  109.76967
   9   146.91373  144.83909  141.79789  137.68132  132.10060  124.67251  115.17479
  10   146.97310  144.89373  141.86574  137.80038  132.36295  125.25216  116.01646
1
  HEAD             IN LAYER   2 AT END OF TIME STEP   1 IN STRESS PERIOD    1
  ---------------------------------------------------------------------------

           1          2          3          4          5          6          7          8
 ........................................................................................
   1   132.00390  134.26554  137.42124  140.47481  142.93872  144.59414  145.35020  145.16556
   2   130.22802  133.27490  136.98198  140.30918  142.89429  144.60149  145.38102  145.21102
   3   127.64813  132.16094  136.56442  140.18287  142.88995  144.64914  145.45314  145.30072
   4   129.57854  132.85313  136.81408  140.32275  143.01144  144.76975  145.57561  145.42970
   5   130.78162  133.56345  137.23314  140.61256  143.23976  144.96220  145.74537  145.58827
   6   130.47275  133.70222  137.57011  140.96781  143.54821  145.21483  145.95262  145.76492
   7   129.56149  133.94529  138.11807  141.48299  143.95463  145.52083  146.18462  145.94751
   8   133.39374  136.13647  139.39026  142.26576  144.45726  145.85602  146.41820  146.11953
   9   136.60476  138.31049  140.70373  143.04429  144.92746  146.15091  146.61293  146.25695
  10   138.26973  139.53694  141.48622  143.51577  145.20968  146.32413  146.72447  146.33401
1
  HEAD             IN LAYER   2 AT END OF TIME STEP   1 IN STRESS PERIOD    1
  ---------------------------------------------------------------------------

           9         10         11         12         13         14         15
 .............................................................................
   1   144.01013  141.84872  138.63899  134.34760  129.00780  123.02125  117.81736
   2   144.07227  141.93878  138.78039  134.58266  129.40484  123.66053  118.69568
   3   144.18578  142.09527  139.01788  134.97150  130.07181  124.81562  120.58342
   4   144.33236  142.28000  139.27597  135.36170  130.68519  125.75575  121.83937
   5   144.49281  142.45849  139.49352  135.64718  131.08153  126.32847  122.66633
   6   144.65266  142.61181  139.64339  135.78209  131.16340  126.28752  122.46283
   7   144.80368  142.74025  139.74445  135.82328  131.05152  125.80686  121.27594
   8   144.93862  142.85219  139.83895  135.89694  131.09039  125.78860  121.19463
   9   145.04432  142.94367  139.93367  136.02498  131.32213  126.28748  122.23185
  10   145.10334  142.99681  139.99496  136.11901  131.49642  126.61484  122.74197

 HEAD WILL BE SAVED ON UNIT 1017 AT END OF TIME STEP    1, STRESS PERIOD    1

 IBOUND WILL BE SAVED ON UNIT 1018 AT END OF TIME STEP    1, STRESS PERIOD    1
1
  VOLUME BUDGET FOR ENTIRE MODEL AT END OF TIME STEP    1, STRESS PERIOD   1
  ------------------------------------------------------------------------------

     CUMULATIVE VOLUME      L**3       RATES FOR THIS TIME STEP      L**3/T
     ------------------                 ------------------------

           IN:                                      IN:
           ---                                      ---
             STORAGE =           0.0000               STORAGE =           0.0000
    WELLS NEAR RIVER =           0.0000      WELLS NEAR RIVER =           0.0000
               RIVER =           0.0000                 RIVER =           0.0000
           GHB LAKES =           0.0000             GHB LAKES =           0.0000
            RECHARGE =       75156.2500              RECHARGE =       75156.2500
             ET SEGS =           0.0000               ET SEGS =           0.0000

            TOTAL IN =       75156.2500              TOTAL IN =       75156.2500

          OUT:                                     OUT:
          ----                                     ----
             STORAGE =           0.0000               STORAGE =           0.0000
    WELLS NEAR RIVER =           0.0000      WELLS NEAR RIVER =           0.0000
               RIVER =       36687.2900                 RIVER =       36687.2900
           GHB LAKES =       29385.9908             GHB LAKES =       29385.9908
            RECHARGE =           0.0000              RECHARGE =           0.0000
             ET SEGS =        9082.9700               ET SEGS =        9082.9700

           TOTAL OUT =       75156.2508             TOTAL OUT =       75156.2508

            IN - OUT =      -8.0139E-04              IN - OUT =      -8.0139E-04

 PERCENT DISCREPANCY =          -0.00     PERCENT DISCREPANCY =          -0.00






         TIME SUMMARY AT END OF TIME STEP    1 IN STRESS PERIOD    1
                    SECONDS     MINUTES      HOURS       DAYS        YEARS
                    -----------------------------------------------------------
   TIME STEP LENGTH  86400.      1440.0      24.000     1.00000     2.73785E-03
 STRESS PERIOD TIME  86400.      1440.0      24.000     1.00000     2.73785E-03
         TOTAL TIME  86400.      1440.0      24.000     1.00000     2.73785E-03


 UPDATING STORAGE VALUES
 #iconvert(nodes) is 0:confined, 1:convertible

                 ICONVERT =         1
 #ss(nodes) specific storage

         SPECIFIC STORAGE =  1.000000E-05
 #sy(nodes) specific yield

           SPECIFIC YIELD =  0.200000    
 END UPDATING STORAGE VALUES
 #        k         i         j      flow      var1    var2 var3

 WEL NO.  LAYER   ROW    COL     STRESS RATE  BOUNDARY NAME         VAR1            VAR2            VAR3            
 -------------------------------------------------------------------------------------------------------------------
      1      2      3      4       0.000      WELL_1                1.0000           2.000           3.000    
      2      2      8      4       0.000      WELL_2                 4.000           5.000           6.000    
      3      2      4      6     -10.000                             7.000           8.000           9.000    
      4      2      5      8      -20.00                             17.00           18.00           19.00    
      5      2      2      9      -40.00                             27.00           28.00           29.00    

 REUSING RIVS FROM LAST STRESS PERIOD

 GHB NO.  LAYER   ROW    COL       STAGE         CONDUCTANCE  BOUNDARY NAME         
 -----------------------------------------------------------------------------------
      1      1      3      1      100.00           1502.                      
      2      1      7      1       110.0           1402.      GHB2_UPPER      
      3      1      7      1       85.00           502.0      GHB2_LOWER      
 # Constant recharge applies stress period 8

 REUSING RCHS FROM LAST STRESS PERIOD
WEL   no.    1 value from time series:   0.0000     for time: 1.0000     to  2.000    
WEL   no.    2 value from time series:   0.0000     for time: 1.0000     to  2.000    
RIV   no.    1 value from time series:   102.00     for time: 1.0000     to  2.000    
RIV   no.    2 value from time series:   102.00     for time: 1.0000     to  2.000    
RIV   no.    3 value from time series:   111.75     for time: 1.0000     to  2.000    
RIV   no.    4 value from time series:   111.75     for time: 1.0000     to  2.000    
RIV   no.    5 value from time series:   116.00     for time: 1.0000     to  2.000    
RIV   no.    6 value from time series:   116.00     for time: 1.0000     to  2.000    
RIV   no.    7 value from time series:   104.80     for time: 1.0000     to  2.000    
RIV   no.    8 value from time series:   104.80     for time: 1.0000     to  2.000    
RIV   no.    9 value from time series:   113.50     for time: 1.0000     to  2.000    
RIV   no.   10 value from time series:   113.50     for time: 1.0000     to  2.000    

 EtsArraySeries           =  3.500000E-04 FOR LAYER   1
WEL   no.    1 value from time series:   0.0000     for time: 1.0000     to  2.000    
WEL   no.    2 value from time series:   0.0000     for time: 1.0000     to  2.000    
RIV   no.    1 value from time series:   102.00     for time: 1.0000     to  2.000    
RIV   no.    2 value from time series:   102.00     for time: 1.0000     to  2.000    
RIV   no.    3 value from time series:   111.75     for time: 1.0000     to  2.000    
RIV   no.    4 value from time series:   111.75     for time: 1.0000     to  2.000    
RIV   no.    5 value from time series:   116.00     for time: 1.0000     to  2.000    
RIV   no.    6 value from time series:   116.00     for time: 1.0000     to  2.000    
RIV   no.    7 value from time series:   104.80     for time: 1.0000     to  2.000    
RIV   no.    8 value from time series:   104.80     for time: 1.0000     to  2.000    
RIV   no.    9 value from time series:   113.50     for time: 1.0000     to  2.000    
RIV   no.   10 value from time series:   113.50     for time: 1.0000     to  2.000    

 OUTPUT CONTROL FOR STRESS PERIOD    2   TIME STEP    1
    PRINT BUDGET
    PRINT HEAD
    PRINT HEAD FOR ALL LAYERS
    PRINT DRAWDOWN
    PRINT DRAWDOWN FOR ALL LAYERS
    SAVE BUDGET
    SAVE HEAD
    SAVE HEAD FOR ALL LAYERS
    SAVE IBOUND
    SAVE IBOUND FOR ALL LAYERS
 UBDSV1 SAVING          STORAGE ON UNIT   1016 AT TIME STEP      1, STRESS PERIOD      2
 UBDSV1 SAVING FLOW RIGHT FACE  ON UNIT   1016 AT TIME STEP      1, STRESS PERIOD      2
 UBDSV1 SAVING FLOW FRONT FACE  ON UNIT   1016 AT TIME STEP      1, STRESS PERIOD      2
 UBDSV1 SAVING FLOW LOWER FACE  ON UNIT   1016 AT TIME STEP      1, STRESS PERIOD      2
 UBDSV4 SAVING WELLS NEAR RIVER ON UNIT   1016 AT TIME STEP      1, STRESS PERIOD      2

 WELLS NEAR RIVER   PERIOD  2   STEP  1
 BOUNDARY      1   LAYER   2   ROW     3   COL     4   RATE     0.00000      WELL_1
 BOUNDARY      2   LAYER   2   ROW     8   COL     4   RATE     0.00000      WELL_2
 BOUNDARY      3   LAYER   2   ROW     4   COL     6   RATE   -10.00000    
 BOUNDARY      4   LAYER   2   ROW     5   COL     8   RATE    -20.0000    
 BOUNDARY      5   LAYER   2   ROW     2   COL     9   RATE    -40.0000    
 UBDSV4 SAVING RIVER            ON UNIT   1016 AT TIME STEP      1, STRESS PERIOD      2

 RIVER              PERIOD  2   STEP  1
 BOUNDARY      1   LAYER   1   ROW     1   COL    15   RATE    -3695.34    
 BOUNDARY      2   LAYER   1   ROW     2   COL    15   RATE    -4795.30      RIV2
 BOUNDARY      3   LAYER   1   ROW     3   COL    15   RATE    -1657.05      RIV3
 BOUNDARY      4   LAYER   1   ROW     4   COL    15   RATE    -3146.55    
 BOUNDARY      5   LAYER   1   ROW     5   COL    15   RATE    -1435.32    
 BOUNDARY      6   LAYER   1   ROW     6   COL    15   RATE    -810.332    
 BOUNDARY      7   LAYER   1   ROW     7   COL    15   RATE    -5268.71      RIVX
 BOUNDARY      8   LAYER   1   ROW     8   COL    15   RATE    -5038.82      RIVX
 BOUNDARY      9   LAYER   1   ROW     9   COL    15   RATE    -1709.60      RIVX
 BOUNDARY     10   LAYER   1   ROW    10   COL    15   RATE    -2561.34    

 GHB LAKES          PERIOD  2   STEP  1
 BOUNDARY      1   LAYER   1   ROW     3   COL     1   RATE    -14421.1    
 BOUNDARY      2   LAYER   1   ROW     7   COL     1   RATE    -1829.50      GHB2_UPPER
 BOUNDARY      3   LAYER   1   ROW     7   COL     1   RATE    -13205.1      GHB2_LOWER
 UBDSV4 SAVING RECHARGE         ON UNIT   1016 AT TIME STEP      1, STRESS PERIOD      2

 RECHARGE           PERIOD  2   STEP  1
 BOUNDARY      1   LAYER   1   ROW     1   COL     1   RATE     503.125    
 BOUNDARY      2   LAYER   1   ROW     1   COL     2   RATE     503.125    
 BOUNDARY      3   LAYER   1   ROW     1   COL     3   RATE     503.125    
 BOUNDARY      4   LAYER   1   ROW     1   COL     4   RATE     503.125    
 BOUNDARY      5   LAYER   1   ROW     1   COL     5   RATE     503.125    
 BOUNDARY      6   LAYER   1   ROW     1   COL     6   RATE     503.125    
 BOUNDARY      7   LAYER   1   ROW     1   COL     7   RATE     503.125    
 BOUNDARY      8   LAYER   1   ROW     1   COL     8   RATE     503.125    
 BOUNDARY      9   LAYER   1   ROW     1   COL     9   RATE     503.125    
 BOUNDARY     10   LAYER   1   ROW     1   COL    10   RATE     503.125    
 BOUNDARY     11   LAYER   1   ROW     1   COL    11   RATE     503.125    
 BOUNDARY     12   LAYER   1   ROW     1   COL    12   RATE     503.125    
 BOUNDARY     13   LAYER   1   ROW     1   COL    13   RATE     503.125    
 BOUNDARY     14   LAYER   1   ROW     1   COL    14   RATE     503.125    
 BOUNDARY     15   LAYER   1   ROW     1   COL    15   RATE     503.125    
 BOUNDARY     16   LAYER   1   ROW     2   COL     1   RATE     503.125    
 BOUNDARY     17   LAYER   1   ROW     2   COL     2   RATE     503.125    
 BOUNDARY     18   LAYER   1   ROW     2   COL     3   RATE     503.125    
 BOUNDARY     19   LAYER   1   ROW     2   COL     4   RATE     503.125    
 BOUNDARY     20   LAYER   1   ROW     2   COL     5   RATE     503.125    
 BOUNDARY     21   LAYER   1   ROW     2   COL     6   RATE     503.125    
 BOUNDARY     22   LAYER   1   ROW     2   COL     7   RATE     503.125    
 BOUNDARY     23   LAYER   1   ROW     2   COL     8   RATE     503.125    
 BOUNDARY     24   LAYER   1   ROW     2   COL     9   RATE     503.125    
 BOUNDARY     25   LAYER   1   ROW     2   COL    10   RATE     503.125    
 BOUNDARY     26   LAYER   1   ROW     2   COL    11   RATE     503.125    
 BOUNDARY     27   LAYER   1   ROW     2   COL    12   RATE     503.125    
 BOUNDARY     28   LAYER   1   ROW     2   COL    13   RATE     503.125    
 BOUNDARY     29   LAYER   1   ROW     2   COL    14   RATE     503.125    
 BOUNDARY     30   LAYER   1   ROW     2   COL    15   RATE     503.125    
 BOUNDARY     31   LAYER   1   ROW     3   COL     1   RATE     503.125    
 BOUNDARY     32   LAYER   1   ROW     3   COL     2   RATE     503.125    
 BOUNDARY     33   LAYER   1   ROW     3   COL     3   RATE     503.125    
 BOUNDARY     34   LAYER   1   ROW     3   COL     4   RATE     503.125    
 BOUNDARY     35   LAYER   1   ROW     3   COL     5   RATE     503.125    
 BOUNDARY     36   LAYER   1   ROW     3   COL     6   RATE     503.125    
 BOUNDARY     37   LAYER   1   ROW     3   COL     7   RATE     503.125    
 BOUNDARY     38   LAYER   1   ROW     3   COL     8   RATE     503.125    
 BOUNDARY     39   LAYER   1   ROW     3   COL     9   RATE     503.125    
 BOUNDARY     40   LAYER   1   ROW     3   COL    10   RATE     503.125    
 BOUNDARY     41   LAYER   1   ROW     3   COL    11   RATE     503.125    
 BOUNDARY     42   LAYER   1   ROW     3   COL    12   RATE     503.125    
 BOUNDARY     43   LAYER   1   ROW     3   COL    13   RATE     503.125    
 BOUNDARY     44   LAYER   1   ROW     3   COL    14   RATE     503.125    
 BOUNDARY     45   LAYER   1   ROW     3   COL    15   RATE     503.125    
 BOUNDARY     46   LAYER   1   ROW     4   COL     1   RATE     503.125    
 BOUNDARY     47   LAYER   1   ROW     4   COL     2   RATE     503.125    
 BOUNDARY     48   LAYER   1   ROW     4   COL     3   RATE     503.125    
 BOUNDARY     49   LAYER   1   ROW     4   COL     4   RATE     503.125    
 BOUNDARY     50   LAYER   1   ROW     4   COL     5   RATE     503.125    
 BOUNDARY     51   LAYER   1   ROW     4   COL     6   RATE     503.125    
 BOUNDARY     52   LAYER   1   ROW     4   COL     7   RATE     503.125    
 BOUNDARY     53   LAYER   1   ROW     4   COL     8   RATE     503.125    
 BOUNDARY     54   LAYER   1   ROW     4   COL     9   RATE     503.125    
 BOUNDARY     55   LAYER   1   ROW     4   COL    10   RATE     503.125    
 BOUNDARY     56   LAYER   1   ROW     4   COL    11   RATE     503.125    
 BOUNDARY     57   LAYER   1   ROW     4   COL    12   RATE     503.125    
 BOUNDARY     58   LAYER   1   ROW     4   COL    13   RATE     503.125    
 BOUNDARY     59   LAYER   1   ROW     4   COL    14   RATE     503.125    
 BOUNDARY     60   LAYER   1   ROW     4   COL    15   RATE     503.125    
 BOUNDARY     61   LAYER   1   ROW     5   COL     1   RATE     503.125    
 BOUNDARY     62   LAYER   1   ROW     5   COL     2   RATE     503.125    
 BOUNDARY     63   LAYER   1   ROW     5   COL     3   RATE     503.125    
 BOUNDARY     64   LAYER   1   ROW     5   COL     4   RATE     503.125    
 BOUNDARY     65   LAYER   1   ROW     5   COL     5   RATE     503.125    
 BOUNDARY     66   LAYER   1   ROW     5   COL     6   RATE     503.125    
 BOUNDARY     67   LAYER   1   ROW     5   COL     7   RATE     503.125    
 BOUNDARY     68   LAYER   1   ROW     5   COL     8   RATE     503.125    
 BOUNDARY     69   LAYER   1   ROW     5   COL     9   RATE     503.125    
 BOUNDARY     70   LAYER   1   ROW     5   COL    10   RATE     503.125    
 BOUNDARY     71   LAYER   1   ROW     5   COL    11   RATE     503.125    
 BOUNDARY     72   LAYER   1   ROW     5   COL    12   RATE     503.125    
 BOUNDARY     73   LAYER   1   ROW     5   COL    13   RATE     503.125    
 BOUNDARY     74   LAYER   1   ROW     5   COL    14   RATE     503.125    
 BOUNDARY     75   LAYER   1   ROW     5   COL    15   RATE     503.125    
 BOUNDARY     76   LAYER   1   ROW     6   COL     1   RATE     503.125    
 BOUNDARY     77   LAYER   1   ROW     6   COL     2   RATE     503.125    
 BOUNDARY     78   LAYER   1   ROW     6   COL     3   RATE     503.125    
 BOUNDARY     79   LAYER   1   ROW     6   COL     4   RATE     503.125    
 BOUNDARY     80   LAYER   1   ROW     6   COL     5   RATE     503.125    
 BOUNDARY     81   LAYER   1   ROW     6   COL     6   RATE     503.125    
 BOUNDARY     82   LAYER   1   ROW     6   COL     7   RATE     503.125    
 BOUNDARY     83   LAYER   1   ROW     6   COL     8   RATE     503.125    
 BOUNDARY     84   LAYER   1   ROW     6   COL     9   RATE     503.125    
 BOUNDARY     85   LAYER   1   ROW     6   COL    10   RATE     503.125    
 BOUNDARY     86   LAYER   1   ROW     6   COL    11   RATE     503.125    
 BOUNDARY     87   LAYER   1   ROW     6   COL    12   RATE     503.125    
 BOUNDARY     88   LAYER   1   ROW     6   COL    13   RATE     503.125    
 BOUNDARY     89   LAYER   1   ROW     6   COL    14   RATE     503.125    
 BOUNDARY     90   LAYER   1   ROW     6   COL    15   RATE     503.125    
 BOUNDARY     91   LAYER   1   ROW     7   COL     1   RATE     503.125    
 BOUNDARY     92   LAYER   1   ROW     7   COL     2   RATE     503.125    
 BOUNDARY     93   LAYER   1   ROW     7   COL     3   RATE     503.125    
 BOUNDARY     94   LAYER   1   ROW     7   COL     4   RATE     503.125    
 BOUNDARY     95   LAYER   1   ROW     7   COL     5   RATE     503.125    
 BOUNDARY     96   LAYER   1   ROW     7   COL     6   RATE     503.125    
 BOUNDARY     97   LAYER   1   ROW     7   COL     7   RATE     503.125    
 BOUNDARY     98   LAYER   1   ROW     7   COL     8   RATE     503.125    
 BOUNDARY     99   LAYER   1   ROW     7   COL     9   RATE     503.125    
 BOUNDARY    100   LAYER   1   ROW     7   COL    10   RATE     503.125    
 BOUNDARY    101   LAYER   1   ROW     7   COL    11   RATE     503.125    
 BOUNDARY    102   LAYER   1   ROW     7   COL    12   RATE     503.125    
 BOUNDARY    103   LAYER   1   ROW     7   COL    13   RATE     503.125    
 BOUNDARY    104   LAYER   1   ROW     7   COL    14   RATE     503.125    
 BOUNDARY    105   LAYER   1   ROW     7   COL    15   RATE     503.125    
 BOUNDARY    106   LAYER   1   ROW     8   COL     1   RATE     503.125    
 BOUNDARY    107   LAYER   1   ROW     8   COL     2   RATE     503.125    
 BOUNDARY    108   LAYER   1   ROW     8   COL     3   RATE     503.125    
 BOUNDARY    109   LAYER   1   ROW     8   COL     4   RATE     503.125    
 BOUNDARY    110   LAYER   1   ROW     8   COL     5   RATE     503.125    
 BOUNDARY    111   LAYER   1   ROW     8   COL     6   RATE     503.125    
 BOUNDARY    112   LAYER   1   ROW     8   COL     7   RATE     503.125    
 BOUNDARY    113   LAYER   1   ROW     8   COL     8   RATE     503.125    
 BOUNDARY    114   LAYER   1   ROW     8   COL     9   RATE     503.125    
 BOUNDARY    115   LAYER   1   ROW     8   COL    10   RATE     503.125    
 BOUNDARY    116   LAYER   1   ROW     8   COL    11   RATE     503.125    
 BOUNDARY    117   LAYER   1   ROW     8   COL    12   RATE     503.125    
 BOUNDARY    118   LAYER   1   ROW     8   COL    13   RATE     503.125    
 BOUNDARY    119   LAYER   1   ROW     8   COL    14   RATE     503.125    
 BOUNDARY    120   LAYER   1   ROW     8   COL    15   RATE     503.125    
 BOUNDARY    121   LAYER   1   ROW     9   COL     1   RATE     503.125    
 BOUNDARY    122   LAYER   1   ROW     9   COL     2   RATE     503.125    
 BOUNDARY    123   LAYER   1   ROW     9   COL     3   RATE     503.125    
 BOUNDARY    124   LAYER   1   ROW     9   COL     4   RATE     503.125    
 BOUNDARY    125   LAYER   1   ROW     9   COL     5   RATE     503.125    
 BOUNDARY    126   LAYER   1   ROW     9   COL     6   RATE     503.125    
 BOUNDARY    127   LAYER   1   ROW     9   COL     7   RATE     503.125    
 BOUNDARY    128   LAYER   1   ROW     9   COL     8   RATE     503.125    
 BOUNDARY    129   LAYER   1   ROW     9   COL     9   RATE     503.125    
 BOUNDARY    130   LAYER   1   ROW     9   COL    10   RATE     503.125    
 BOUNDARY    131   LAYER   1   ROW     9   COL    11   RATE     503.125    
 BOUNDARY    132   LAYER   1   ROW     9   COL    12   RATE     503.125    
 BOUNDARY    133   LAYER   1   ROW     9   COL    13   RATE     503.125    
 BOUNDARY    134   LAYER   1   ROW     9   COL    14   RATE     503.125    
 BOUNDARY    135   LAYER   1   ROW     9   COL    15   RATE     503.125    
 BOUNDARY    136   LAYER   1   ROW    10   COL     1   RATE     503.125    
 BOUNDARY    137   LAYER   1   ROW    10   COL     2   RATE     503.125    
 BOUNDARY    138   LAYER   1   ROW    10   COL     3   RATE     503.125    
 BOUNDARY    139   LAYER   1   ROW    10   COL     4   RATE     503.125    
 BOUNDARY    140   LAYER   1   ROW    10   COL     5   RATE     503.125    
 BOUNDARY    141   LAYER   1   ROW    10   COL     6   RATE     503.125    
 BOUNDARY    142   LAYER   1   ROW    10   COL     7   RATE     503.125    
 BOUNDARY    143   LAYER   1   ROW    10   COL     8   RATE     503.125    
 BOUNDARY    144   LAYER   1   ROW    10   COL     9   RATE     503.125    
 BOUNDARY    145   LAYER   1   ROW    10   COL    10   RATE     503.125    
 BOUNDARY    146   LAYER   1   ROW    10   COL    11   RATE     503.125    
 BOUNDARY    147   LAYER   1   ROW    10   COL    12   RATE     503.125    
 BOUNDARY    148   LAYER   1   ROW    10   COL    13   RATE     503.125    
 BOUNDARY    149   LAYER   1   ROW    10   COL    14   RATE     503.125    
 BOUNDARY    150   LAYER   1   ROW    10   COL    15   RATE     503.125    
 UBDSV4 SAVING ET SEGS          ON UNIT   1016 AT TIME STEP      1, STRESS PERIOD      2

 ET SEGS            PERIOD  2   STEP  1
 BOUNDARY      1   LAYER   1   ROW     1   COL     1   RATE    -1.55520    
 BOUNDARY      2   LAYER   1   ROW     1   COL     2   RATE    -6.71618    
 BOUNDARY      3   LAYER   1   ROW     1   COL     3   RATE    -35.8947    
 BOUNDARY      4   LAYER   1   ROW     1   COL     4   RATE    -75.3125    
 BOUNDARY      5   LAYER   1   ROW     1   COL     5   RATE    -75.3125    
 BOUNDARY      6   LAYER   1   ROW     1   COL     6   RATE    -75.3125    
 BOUNDARY      7   LAYER   1   ROW     1   COL     7   RATE    -75.3125    
 BOUNDARY      8   LAYER   1   ROW     1   COL     8   RATE    -75.3125    
 BOUNDARY      9   LAYER   1   ROW     1   COL     9   RATE    -75.3125    
 BOUNDARY     10   LAYER   1   ROW     1   COL    10   RATE    -75.3125    
 BOUNDARY     11   LAYER   1   ROW     1   COL    11   RATE    -75.3125    
 BOUNDARY     12   LAYER   1   ROW     1   COL    12   RATE    -12.4243    
 BOUNDARY     13   LAYER   1   ROW     1   COL    13   RATE     0.00000    
 BOUNDARY     14   LAYER   1   ROW     1   COL    14   RATE     0.00000    
 BOUNDARY     15   LAYER   1   ROW     1   COL    15   RATE     0.00000    
 BOUNDARY     16   LAYER   1   ROW     2   COL     1   RATE     0.00000    
 BOUNDARY     17   LAYER   1   ROW     2   COL     2   RATE    -3.31565    
 BOUNDARY     18   LAYER   1   ROW     2   COL     3   RATE    -21.0811    
 BOUNDARY     19   LAYER   1   ROW     2   COL     4   RATE    -75.3125    
 BOUNDARY     20   LAYER   1   ROW     2   COL     5   RATE    -75.3125    
 BOUNDARY     21   LAYER   1   ROW     2   COL     6   RATE    -75.3125    
 BOUNDARY     22   LAYER   1   ROW     2   COL     7   RATE    -75.3125    
 BOUNDARY     23   LAYER   1   ROW     2   COL     8   RATE    -75.3125    
 BOUNDARY     24   LAYER   1   ROW     2   COL     9   RATE    -75.3125    
 BOUNDARY     25   LAYER   1   ROW     2   COL    10   RATE    -75.3125    
 BOUNDARY     26   LAYER   1   ROW     2   COL    11   RATE    -75.3125    
 BOUNDARY     27   LAYER   1   ROW     2   COL    12   RATE    -13.7347    
 BOUNDARY     28   LAYER   1   ROW     2   COL    13   RATE     0.00000    
 BOUNDARY     29   LAYER   1   ROW     2   COL    14   RATE     0.00000    
 BOUNDARY     30   LAYER   1   ROW     2   COL    15   RATE     0.00000    
 BOUNDARY     31   LAYER   1   ROW     3   COL     1   RATE     0.00000    
 BOUNDARY     32   LAYER   1   ROW     3   COL     2   RATE     0.00000    
 BOUNDARY     33   LAYER   1   ROW     3   COL     3   RATE    -16.5705    
 BOUNDARY     34   LAYER   1   ROW     3   COL     4   RATE    -75.3125    
 BOUNDARY     35   LAYER   1   ROW     3   COL     5   RATE    -75.3125    
 BOUNDARY     36   LAYER   1   ROW     3   COL     6   RATE    -75.3125    
 BOUNDARY     37   LAYER   1   ROW     3   COL     7   RATE    -75.3125    
 BOUNDARY     38   LAYER   1   ROW     3   COL     8   RATE    -75.3125    
 BOUNDARY     39   LAYER   1   ROW     3   COL     9   RATE    -75.3125    
 BOUNDARY     40   LAYER   1   ROW     3   COL    10   RATE    -75.3125    
 BOUNDARY     41   LAYER   1   ROW     3   COL    11   RATE    -75.3125    
 BOUNDARY     42   LAYER   1   ROW     3   COL    12   RATE    -15.9447    
 BOUNDARY     43   LAYER   1   ROW     3   COL    13   RATE    -1.34366    
 BOUNDARY     44   LAYER   1   ROW     3   COL    14   RATE     0.00000    
 BOUNDARY     45   LAYER   1   ROW     3   COL    15   RATE     0.00000    
 BOUNDARY     46   LAYER   1   ROW     4   COL     1   RATE     0.00000    
 BOUNDARY     47   LAYER   1   ROW     4   COL     2   RATE    -2.17545    
 BOUNDARY     48   LAYER   1   ROW     4   COL     3   RATE    -19.4815    
 BOUNDARY     49   LAYER   1   ROW     4   COL     4   RATE    -75.3125    
 BOUNDARY     50   LAYER   1   ROW     4   COL     5   RATE    -75.3125    
 BOUNDARY     51   LAYER   1   ROW     4   COL     6   RATE    -75.3125    
 BOUNDARY     52   LAYER   1   ROW     4   COL     7   RATE    -75.3125    
 BOUNDARY     53   LAYER   1   ROW     4   COL     8   RATE    -75.3125    
 BOUNDARY     54   LAYER   1   ROW     4   COL     9   RATE    -75.3125    
 BOUNDARY     55   LAYER   1   ROW     4   COL    10   RATE    -75.3125    
 BOUNDARY     56   LAYER   1   ROW     4   COL    11   RATE    -75.3125    
 BOUNDARY     57   LAYER   1   ROW     4   COL    12   RATE    -18.0545    
 BOUNDARY     58   LAYER   1   ROW     4   COL    13   RATE    -2.44802    
 BOUNDARY     59   LAYER   1   ROW     4   COL    14   RATE     0.00000    
 BOUNDARY     60   LAYER   1   ROW     4   COL    15   RATE     0.00000    
 BOUNDARY     61   LAYER   1   ROW     5   COL     1   RATE     0.00000    
 BOUNDARY     62   LAYER   1   ROW     5   COL     2   RATE    -4.41473    
 BOUNDARY     63   LAYER   1   ROW     5   COL     3   RATE    -22.4848    
 BOUNDARY     64   LAYER   1   ROW     5   COL     4   RATE    -75.3125    
 BOUNDARY     65   LAYER   1   ROW     5   COL     5   RATE    -75.3125    
 BOUNDARY     66   LAYER   1   ROW     5   COL     6   RATE    -75.3125    
 BOUNDARY     67   LAYER   1   ROW     5   COL     7   RATE    -75.3125    
 BOUNDARY     68   LAYER   1   ROW     5   COL     8   RATE    -75.3125    
 BOUNDARY     69   LAYER   1   ROW     5   COL     9   RATE    -75.3125    
 BOUNDARY     70   LAYER   1   ROW     5   COL    10   RATE    -75.3125    
 BOUNDARY     71   LAYER   1   ROW     5   COL    11   RATE    -75.3125    
 BOUNDARY     72   LAYER   1   ROW     5   COL    12   RATE    -19.5175    
 BOUNDARY     73   LAYER   1   ROW     5   COL    13   RATE    -3.14122    
 BOUNDARY     74   LAYER   1   ROW     5   COL    14   RATE     0.00000    
 BOUNDARY     75   LAYER   1   ROW     5   COL    15   RATE     0.00000    
 BOUNDARY     76   LAYER   1   ROW     6   COL     1   RATE     0.00000    
 BOUNDARY     77   LAYER   1   ROW     6   COL     2   RATE    -3.33928    
 BOUNDARY     78   LAYER   1   ROW     6   COL     3   RATE    -24.9380    
 BOUNDARY     79   LAYER   1   ROW     6   COL     4   RATE    -75.3125    
 BOUNDARY     80   LAYER   1   ROW     6   COL     5   RATE    -75.3125    
 BOUNDARY     81   LAYER   1   ROW     6   COL     6   RATE    -75.3125    
 BOUNDARY     82   LAYER   1   ROW     6   COL     7   RATE    -75.3125    
 BOUNDARY     83   LAYER   1   ROW     6   COL     8   RATE    -75.3125    
 BOUNDARY     84   LAYER   1   ROW     6   COL     9   RATE    -75.3125    
 BOUNDARY     85   LAYER   1   ROW     6   COL    10   RATE    -75.3125    
 BOUNDARY     86   LAYER   1   ROW     6   COL    11   RATE    -75.3125    
 BOUNDARY     87   LAYER   1   ROW     6   COL    12   RATE    -20.0065    
 BOUNDARY     88   LAYER   1   ROW     6   COL    13   RATE    -3.11100    
 BOUNDARY     89   LAYER   1   ROW     6   COL    14   RATE     0.00000    
 BOUNDARY     90   LAYER   1   ROW     6   COL    15   RATE     0.00000    
 BOUNDARY     91   LAYER   1   ROW     7   COL     1   RATE     0.00000    
 BOUNDARY     92   LAYER   1   ROW     7   COL     2   RATE   -0.709691    
 BOUNDARY     93   LAYER   1   ROW     7   COL     3   RATE    -30.1267    
 BOUNDARY     94   LAYER   1   ROW     7   COL     4   RATE    -75.3125    
 BOUNDARY     95   LAYER   1   ROW     7   COL     5   RATE    -75.3125    
 BOUNDARY     96   LAYER   1   ROW     7   COL     6   RATE    -75.3125    
 BOUNDARY     97   LAYER   1   ROW     7   COL     7   RATE    -75.3125    
 BOUNDARY     98   LAYER   1   ROW     7   COL     8   RATE    -75.3125    
 BOUNDARY     99   LAYER   1   ROW     7   COL     9   RATE    -75.3125    
 BOUNDARY    100   LAYER   1   ROW     7   COL    10   RATE    -75.3125    
 BOUNDARY    101   LAYER   1   ROW     7   COL    11   RATE    -75.3125    
 BOUNDARY    102   LAYER   1   ROW     7   COL    12   RATE    -19.8818    
 BOUNDARY    103   LAYER   1   ROW     7   COL    13   RATE    -2.55445    
 BOUNDARY    104   LAYER   1   ROW     7   COL    14   RATE     0.00000    
 BOUNDARY    105   LAYER   1   ROW     7   COL    15   RATE     0.00000    
 BOUNDARY    106   LAYER   1   ROW     8   COL     1   RATE     0.00000    
 BOUNDARY    107   LAYER   1   ROW     8   COL     2   RATE    -8.27893    
 BOUNDARY    108   LAYER   1   ROW     8   COL     3   RATE    -75.3125    
 BOUNDARY    109   LAYER   1   ROW     8   COL     4   RATE    -75.3125    
[...]
 BOUNDARY    136   LAYER   1   ROW    10   COL     1   RATE     250.000    
 BOUNDARY    137   LAYER   1   ROW    10   COL     2   RATE     250.000    
 BOUNDARY    138   LAYER   1   ROW    10   COL     3   RATE     250.000    
 BOUNDARY    139   LAYER   1   ROW    10   COL     4   RATE     250.000    
 BOUNDARY    140   LAYER   1   ROW    10   COL     5   RATE     250.000    
 BOUNDARY    141   LAYER   1   ROW    10   COL     6   RATE     250.000    
 BOUNDARY    142   LAYER   1   ROW    10   COL     7   RATE     250.000    
 BOUNDARY    143   LAYER   1   ROW    10   COL     8   RATE     250.000    
 BOUNDARY    144   LAYER   1   ROW    10   COL     9   RATE     250.000    
 BOUNDARY    145   LAYER   1   ROW    10   COL    10   RATE     250.000    
 BOUNDARY    146   LAYER   1   ROW    10   COL    11   RATE     250.000    
 BOUNDARY    147   LAYER   1   ROW    10   COL    12   RATE     250.000    
 BOUNDARY    148   LAYER   1   ROW    10   COL    13   RATE     250.000    
 BOUNDARY    149   LAYER   1   ROW    10   COL    14   RATE     250.000    
 BOUNDARY    150   LAYER   1   ROW    10   COL    15   RATE     250.000    
 UBDSV4 SAVING ET SEGS          ON UNIT   1016 AT TIME STEP     31, STRESS PERIOD      8

 ET SEGS            PERIOD  8   STEP 31
 BOUNDARY      1   LAYER   1   ROW     1   COL     1   RATE    -4.46023    
 BOUNDARY      2   LAYER   1   ROW     1   COL     2   RATE    -15.0536    
 BOUNDARY      3   LAYER   1   ROW     1   COL     3   RATE    -80.0347    
 BOUNDARY      4   LAYER   1   ROW     1   COL     4   RATE    -80.0347    
 BOUNDARY      5   LAYER   1   ROW     1   COL     5   RATE    -80.0347    
 BOUNDARY      6   LAYER   1   ROW     1   COL     6   RATE    -80.0347    
 BOUNDARY      7   LAYER   1   ROW     1   COL     7   RATE    -80.0347    
 BOUNDARY      8   LAYER   1   ROW     1   COL     8   RATE    -80.0347    
 BOUNDARY      9   LAYER   1   ROW     1   COL     9   RATE    -80.0347    
 BOUNDARY     10   LAYER   1   ROW     1   COL    10   RATE    -80.0347    
 BOUNDARY     11   LAYER   1   ROW     1   COL    11   RATE    -80.0347    
 BOUNDARY     12   LAYER   1   ROW     1   COL    12   RATE    -23.7242    
 BOUNDARY     13   LAYER   1   ROW     1   COL    13   RATE    -1.92763    
 BOUNDARY     14   LAYER   1   ROW     1   COL    14   RATE     0.00000    
 BOUNDARY     15   LAYER   1   ROW     1   COL    15   RATE     0.00000    
 BOUNDARY     16   LAYER   1   ROW     2   COL     1   RATE     0.00000    
 BOUNDARY     17   LAYER   1   ROW     2   COL     2   RATE    -6.30246    
 BOUNDARY     18   LAYER   1   ROW     2   COL     3   RATE    -69.2962    
 BOUNDARY     19   LAYER   1   ROW     2   COL     4   RATE    -80.0347    
 BOUNDARY     20   LAYER   1   ROW     2   COL     5   RATE    -80.0347    
 BOUNDARY     21   LAYER   1   ROW     2   COL     6   RATE    -80.0347    
 BOUNDARY     22   LAYER   1   ROW     2   COL     7   RATE    -80.0347    
 BOUNDARY     23   LAYER   1   ROW     2   COL     8   RATE    -80.0347    
 BOUNDARY     24   LAYER   1   ROW     2   COL     9   RATE    -80.0347    
 BOUNDARY     25   LAYER   1   ROW     2   COL    10   RATE    -80.0347    
 BOUNDARY     26   LAYER   1   ROW     2   COL    11   RATE    -80.0347    
 BOUNDARY     27   LAYER   1   ROW     2   COL    12   RATE    -29.4500    
 BOUNDARY     28   LAYER   1   ROW     2   COL    13   RATE    -2.69552    
 BOUNDARY     29   LAYER   1   ROW     2   COL    14   RATE     0.00000    
 BOUNDARY     30   LAYER   1   ROW     2   COL    15   RATE     0.00000    
 BOUNDARY     31   LAYER   1   ROW     3   COL     1   RATE     0.00000    
 BOUNDARY     32   LAYER   1   ROW     3   COL     2   RATE   -0.506957    
 BOUNDARY     33   LAYER   1   ROW     3   COL     3   RATE    -43.0616    
 BOUNDARY     34   LAYER   1   ROW     3   COL     4   RATE    -80.0347    
 BOUNDARY     35   LAYER   1   ROW     3   COL     5   RATE    -80.0347    
 BOUNDARY     36   LAYER   1   ROW     3   COL     6   RATE    -80.0347    
 BOUNDARY     37   LAYER   1   ROW     3   COL     7   RATE    -80.0347    
 BOUNDARY     38   LAYER   1   ROW     3   COL     8   RATE    -80.0347    
 BOUNDARY     39   LAYER   1   ROW     3   COL     9   RATE    -80.0347    
 BOUNDARY     40   LAYER   1   ROW     3   COL    10   RATE    -80.0347    
 BOUNDARY     41   LAYER   1   ROW     3   COL    11   RATE    -80.0347    
 BOUNDARY     42   LAYER   1   ROW     3   COL    12   RATE    -41.1504    
 BOUNDARY     43   LAYER   1   ROW     3   COL    13   RATE    -4.09280    
 BOUNDARY     44   LAYER   1   ROW     3   COL    14   RATE     0.00000    
 BOUNDARY     45   LAYER   1   ROW     3   COL    15   RATE     0.00000    
 BOUNDARY     46   LAYER   1   ROW     4   COL     1   RATE     0.00000    
 BOUNDARY     47   LAYER   1   ROW     4   COL     2   RATE    -5.01356    
 BOUNDARY     48   LAYER   1   ROW     4   COL     3   RATE    -59.9854    
 BOUNDARY     49   LAYER   1   ROW     4   COL     4   RATE    -80.0347    
 BOUNDARY     50   LAYER   1   ROW     4   COL     5   RATE    -80.0347    
 BOUNDARY     51   LAYER   1   ROW     4   COL     6   RATE    -80.0347    
 BOUNDARY     52   LAYER   1   ROW     4   COL     7   RATE    -80.0347    
 BOUNDARY     53   LAYER   1   ROW     4   COL     8   RATE    -80.0347    
 BOUNDARY     54   LAYER   1   ROW     4   COL     9   RATE    -80.0347    
 BOUNDARY     55   LAYER   1   ROW     4   COL    10   RATE    -80.0347    
 BOUNDARY     56   LAYER   1   ROW     4   COL    11   RATE    -80.0347    
 BOUNDARY     57   LAYER   1   ROW     4   COL    12   RATE    -52.2407    
 BOUNDARY     58   LAYER   1   ROW     4   COL    13   RATE    -5.21616    
 BOUNDARY     59   LAYER   1   ROW     4   COL    14   RATE     0.00000    
 BOUNDARY     60   LAYER   1   ROW     4   COL    15   RATE     0.00000    
 BOUNDARY     61   LAYER   1   ROW     5   COL     1   RATE     0.00000    
 BOUNDARY     62   LAYER   1   ROW     5   COL     2   RATE    -7.49704    
 BOUNDARY     63   LAYER   1   ROW     5   COL     3   RATE    -77.3244    
 BOUNDARY     64   LAYER   1   ROW     5   COL     4   RATE    -80.0347    
 BOUNDARY     65   LAYER   1   ROW     5   COL     5   RATE    -80.0347    
 BOUNDARY     66   LAYER   1   ROW     5   COL     6   RATE    -80.0347    
 BOUNDARY     67   LAYER   1   ROW     5   COL     7   RATE    -80.0347    
 BOUNDARY     68   LAYER   1   ROW     5   COL     8   RATE    -80.0347    
 BOUNDARY     69   LAYER   1   ROW     5   COL     9   RATE    -80.0347    
 BOUNDARY     70   LAYER   1   ROW     5   COL    10   RATE    -80.0347    
 BOUNDARY     71   LAYER   1   ROW     5   COL    11   RATE    -80.0347    
 BOUNDARY     72   LAYER   1   ROW     5   COL    12   RATE    -59.9234    
 BOUNDARY     73   LAYER   1   ROW     5   COL    13   RATE    -5.89584    
 BOUNDARY     74   LAYER   1   ROW     5   COL    14   RATE     0.00000    
 BOUNDARY     75   LAYER   1   ROW     5   COL    15   RATE     0.00000    
 BOUNDARY     76   LAYER   1   ROW     6   COL     1   RATE     0.00000    
 BOUNDARY     77   LAYER   1   ROW     6   COL     2   RATE    -6.23156    
 BOUNDARY     78   LAYER   1   ROW     6   COL     3   RATE    -80.0347    
 BOUNDARY     79   LAYER   1   ROW     6   COL     4   RATE    -80.0347    
 BOUNDARY     80   LAYER   1   ROW     6   COL     5   RATE    -80.0347    
 BOUNDARY     81   LAYER   1   ROW     6   COL     6   RATE    -80.0347    
 BOUNDARY     82   LAYER   1   ROW     6   COL     7   RATE    -80.0347    
 BOUNDARY     83   LAYER   1   ROW     6   COL     8   RATE    -80.0347    
 BOUNDARY     84   LAYER   1   ROW     6   COL     9   RATE    -80.0347    
 BOUNDARY     85   LAYER   1   ROW     6   COL    10   RATE    -80.0347    
 BOUNDARY     86   LAYER   1   ROW     6   COL    11   RATE    -80.0347    
 BOUNDARY     87   LAYER   1   ROW     6   COL    12   RATE    -62.7140    
 BOUNDARY     88   LAYER   1   ROW     6   COL    13   RATE    -5.85863    
 BOUNDARY     89   LAYER   1   ROW     6   COL    14   RATE     0.00000    
 BOUNDARY     90   LAYER   1   ROW     6   COL    15   RATE     0.00000    
 BOUNDARY     91   LAYER   1   ROW     7   COL     1   RATE     0.00000    
 BOUNDARY     92   LAYER   1   ROW     7   COL     2   RATE    -3.22486    
 BOUNDARY     93   LAYER   1   ROW     7   COL     3   RATE    -80.0347    
 BOUNDARY     94   LAYER   1   ROW     7   COL     4   RATE    -80.0347    
 BOUNDARY     95   LAYER   1   ROW     7   COL     5   RATE    -80.0347    
 BOUNDARY     96   LAYER   1   ROW     7   COL     6   RATE    -80.0347    
 BOUNDARY     97   LAYER   1   ROW     7   COL     7   RATE    -80.0347    
 BOUNDARY     98   LAYER   1   ROW     7   COL     8   RATE    -80.0347    
 BOUNDARY     99   LAYER   1   ROW     7   COL     9   RATE    -80.0347    
 BOUNDARY    100   LAYER   1   ROW     7   COL    10   RATE    -80.0347    
 BOUNDARY    101   LAYER   1   ROW     7   COL    11   RATE    -80.0347    
 BOUNDARY    102   LAYER   1   ROW     7   COL    12   RATE    -62.5877    
 BOUNDARY    103   LAYER   1   ROW     7   COL    13   RATE    -5.31790    
 BOUNDARY    104   LAYER   1   ROW     7   COL    14   RATE     0.00000    
 BOUNDARY    105   LAYER   1   ROW     7   COL    15   RATE     0.00000    
 BOUNDARY    106   LAYER   1   ROW     8   COL     1   RATE   -0.954748    
 BOUNDARY    107   LAYER   1   ROW     8   COL     2   RATE    -18.3369    
 BOUNDARY    108   LAYER   1   ROW     8   COL     3   RATE    -80.0347    
 BOUNDARY    109   LAYER   1   ROW     8   COL     4   RATE    -80.0347    
 BOUNDARY    110   LAYER   1   ROW     8   COL     5   RATE    -80.0347    
 BOUNDARY    111   LAYER   1   ROW     8   COL     6   RATE    -80.0347    
 BOUNDARY    112   LAYER   1   ROW     8   COL     7   RATE    -80.0347    
 BOUNDARY    113   LAYER   1   ROW     8   COL     8   RATE    -80.0347    
 BOUNDARY    114   LAYER   1   ROW     8   COL     9   RATE    -80.0347    
 BOUNDARY    115   LAYER   1   ROW     8   COL    10   RATE    -80.0347    
 BOUNDARY    116   LAYER   1   ROW     8   COL    11   RATE    -80.0347    
 BOUNDARY    117   LAYER   1   ROW     8   COL    12   RATE    -64.9050    
 BOUNDARY    118   LAYER   1   ROW     8   COL    13   RATE    -5.37877    
 BOUNDARY    119   LAYER   1   ROW     8   COL    14   RATE     0.00000    
 BOUNDARY    120   LAYER   1   ROW     8   COL    15   RATE     0.00000    
 BOUNDARY    121   LAYER   1   ROW     9   COL     1   RATE    -26.9434    
 BOUNDARY    122   LAYER   1   ROW     9   COL     2   RATE    -80.0347    
 BOUNDARY    123   LAYER   1   ROW     9   COL     3   RATE    -80.0347    
 BOUNDARY    124   LAYER   1   ROW     9   COL     4   RATE    -80.0347    
 BOUNDARY    125   LAYER   1   ROW     9   COL     5   RATE    -80.0347    
 BOUNDARY    126   LAYER   1   ROW     9   COL     6   RATE    -80.0347    
 BOUNDARY    127   LAYER   1   ROW     9   COL     7   RATE    -80.0347    
 BOUNDARY    128   LAYER   1   ROW     9   COL     8   RATE    -80.0347    
 BOUNDARY    129   LAYER   1   ROW     9   COL     9   RATE    -80.0347    
 BOUNDARY    130   LAYER   1   ROW     9   COL    10   RATE    -80.0347    
 BOUNDARY    131   LAYER   1   ROW     9   COL    11   RATE    -80.0347    
 BOUNDARY    132   LAYER   1   ROW     9   COL    12   RATE    -70.1001    
 BOUNDARY    133   LAYER   1   ROW     9   COL    13   RATE    -6.08942    
 BOUNDARY    134   LAYER   1   ROW     9   COL    14   RATE     0.00000    
 BOUNDARY    135   LAYER   1   ROW     9   COL    15   RATE     0.00000    
 BOUNDARY    136   LAYER   1   ROW    10   COL     1   RATE    -80.0347    
 BOUNDARY    137   LAYER   1   ROW    10   COL     2   RATE    -80.0347    
 BOUNDARY    138   LAYER   1   ROW    10   COL     3   RATE    -80.0347    
 BOUNDARY    139   LAYER   1   ROW    10   COL     4   RATE    -80.0347    
 BOUNDARY    140   LAYER   1   ROW    10   COL     5   RATE    -80.0347    
 BOUNDARY    141   LAYER   1   ROW    10   COL     6   RATE    -80.0347    
 BOUNDARY    142   LAYER   1   ROW    10   COL     7   RATE    -80.0347    
 BOUNDARY    143   LAYER   1   ROW    10   COL     8   RATE    -80.0347    
 BOUNDARY    144   LAYER   1   ROW    10   COL     9   RATE    -80.0347    
 BOUNDARY    145   LAYER   1   ROW    10   COL    10   RATE    -80.0347    
 BOUNDARY    146   LAYER   1   ROW    10   COL    11   RATE    -80.0347    
 BOUNDARY    147   LAYER   1   ROW    10   COL    12   RATE    -73.7746    
 BOUNDARY    148   LAYER   1   ROW    10   COL    13   RATE    -6.54258    
 BOUNDARY    149   LAYER   1   ROW    10   COL    14   RATE     0.00000    
 BOUNDARY    150   LAYER   1   ROW    10   COL    15   RATE     0.00000    
1
  HEAD             IN LAYER   1 AT END OF TIME STEP  31 IN STRESS PERIOD    8
  ---------------------------------------------------------------------------

           1          2          3          4          5          6          7          8
 ........................................................................................
   1   132.78643  136.32132  140.47455  144.12020  146.87316  148.65725  149.47231  149.32235
   2   127.20018  133.93733  139.61665  143.83623  146.80072  148.66374  149.50852  149.37539
   3   110.14130  130.31671  138.68010  143.59015  146.77626  148.71624  149.58337  149.47234
   4   125.85806  133.13212  139.28426  143.79852  146.92464  148.84595  149.68216  149.58587
   5   129.80116  134.68362  139.90324  144.14964  147.18550  149.03439  149.78393  149.68895
   6   126.54522  133.89303  140.01433  144.47519  147.50125  149.24969  149.87790  149.77431
   7   111.73385  132.01466  140.23093  144.96490  147.89992  149.46697  149.95312  149.84533
   8   130.59646  136.93668  142.15704  145.93771  148.42428  149.67737  149.99788  149.90150
   9   138.10470  140.81096  144.07345  146.92184  148.92035  149.85169  150.05683  149.94176
  10   141.03650  142.72925  145.15534  147.50667  149.21293  149.94250  150.09958  149.96094
1
  HEAD             IN LAYER   1 AT END OF TIME STEP  31 IN STRESS PERIOD    8
  ---------------------------------------------------------------------------

           9         10         11         12         13         14         15
 .............................................................................
   1   148.18871  146.01462  142.67867  137.94636  131.20425  121.34752  105.83025
   2   148.25774  146.10789  142.82179  138.19419  131.68397  122.23605  106.94925
   3   148.38357  146.27232  143.06407  138.61188  132.55689  124.35256  113.72130
   4   148.53986  146.46872  143.32473  139.00779  133.25868  125.57605  115.17555
   5   148.70020  146.66190  143.54435  139.28205  133.68330  126.39141  117.41391
   6   148.85222  146.83339  143.69637  139.38167  133.66006  126.07156  116.76268
   7   148.99172  146.98330  143.80381  139.37716  133.32225  124.53531  110.11622
   8   149.11166  147.11785  143.91922  139.45989  133.36027  124.48830  109.96604
   9   149.19840  147.22644  144.04283  139.64535  133.80423  125.91188  115.70940
  10   149.24267  147.28745  144.12236  139.77652  134.08734  126.52924  116.60742
1
  HEAD             IN LAYER   2 AT END OF TIME STEP  31 IN STRESS PERIOD    8
  ---------------------------------------------------------------------------

           1          2          3          4          5          6          7          8
 ........................................................................................
   1   133.78601  136.13469  139.40902  142.58759  145.14722  146.86321  147.64786  147.46276
   2   131.90772  135.08665  138.94376  142.41302  145.10155  146.87182  147.67994  147.50968
   3   129.17601  133.90655  138.50187  142.28033  145.09810  146.92073  147.75048  147.59834
   4   131.20503  134.62871  138.75982  142.42610  145.22402  147.03851  147.86062  147.71641
   5   132.45564  135.36316  139.19220  142.72639  145.45589  147.21835  148.00060  147.84836
   6   132.09707  135.48696  139.53549  143.09168  145.76220  147.44341  148.15831  147.98235
   7   131.09687  135.72076  140.10326  143.62240  146.15982  147.70459  148.32310  148.11061
   8   135.12936  138.02171  141.44229  144.43471  146.65117  147.98440  148.48141  148.22491
   9   138.50918  140.30924  142.82357  145.24214  147.11023  148.22883  148.61432  148.31397
  10   140.26356  141.60357  143.64692  145.73058  147.38486  148.37108  148.69107  148.36314
1
  HEAD             IN LAYER   2 AT END OF TIME STEP  31 IN STRESS PERIOD    8
  ---------------------------------------------------------------------------

           9         10         11         12         13         14         15
 .............................................................................
   1   146.27549  144.04207  140.70548  136.21569  130.60210  124.26663  118.72604
   2   146.33917  144.13233  140.84441  136.44550  130.99399  124.90436  119.61100
   3   146.45387  144.28917  141.07792  136.82490  131.65009  126.05302  121.51114
   4   146.59762  144.47407  141.33230  137.20393  132.24613  126.96988  122.74207
   5   146.74827  144.65256  141.54906  137.48174  132.62543  127.50837  123.50620
   6   146.89146  144.80639  141.70373  137.61953  132.70762  127.46363  123.29212
   7   147.02093  144.93591  141.81498  137.67499  132.61674  127.01560  122.14901
   8   147.13240  145.04855  141.92184  137.76852  132.68698  127.04626  122.13339
   9   147.21719  145.13962  142.02719  137.91530  132.95072  127.60113  123.26627
  10   147.26351  145.19192  142.09443  138.02033  133.14367  127.95906  123.82049

 HEAD WILL BE SAVED ON UNIT 1017 AT END OF TIME STEP   31, STRESS PERIOD    8

 IBOUND WILL BE SAVED ON UNIT 1018 AT END OF TIME STEP   31, STRESS PERIOD    8
1
  VOLUME BUDGET FOR ENTIRE MODEL AT END OF TIME STEP   31, STRESS PERIOD   8
  ------------------------------------------------------------------------------

     CUMULATIVE VOLUME      L**3       RATES FOR THIS TIME STEP      L**3/T
     ------------------                 ------------------------

           IN:                                      IN:
           ---                                      ---
             STORAGE =     1777548.4596               STORAGE =       39932.1215
    WELLS NEAR RIVER =           0.0000      WELLS NEAR RIVER =           0.0000
               RIVER =           0.0000                 RIVER =           0.0000
           GHB LAKES =           0.0000             GHB LAKES =           0.0000
            RECHARGE =    36874739.5833              RECHARGE =       37500.0000
             ET SEGS =           0.0000               ET SEGS =           0.0000

            TOTAL IN =    38652288.0429              TOTAL IN =       77432.1215

          OUT:                                     OUT:
          ----                                     ----
             STORAGE =     8754966.7455               STORAGE =           0.0000
    WELLS NEAR RIVER =        5570.0000      WELLS NEAR RIVER =           0.0000
               RIVER =    14733380.1623                 RIVER =       38253.1530
           GHB LAKES =    11372587.7565             GHB LAKES =       31122.0999
            RECHARGE =           0.0000              RECHARGE =           0.0000
             ET SEGS =     3785783.3915               ET SEGS =        8056.8686

           TOTAL OUT =    38652288.0558             TOTAL OUT =       77432.1215

            IN - OUT =      -1.2892E-02              IN - OUT =       1.3772E-05

 PERCENT DISCREPANCY =          -0.00     PERCENT DISCREPANCY =           0.00






         TIME SUMMARY AT END OF TIME STEP   31 IN STRESS PERIOD    8
                    SECONDS     MINUTES      HOURS       DAYS        YEARS
                    -----------------------------------------------------------
   TIME STEP LENGTH  86400.      1440.0      24.000     1.00000     2.73785E-03
 STRESS PERIOD TIME 2.67840E+06  44640.      744.00      31.000     8.48734E-02
         TOTAL TIME 3.16224E+07 5.27040E+05  8784.0      366.00      1.0021    
